
---------- Begin Simulation Statistics ----------
simSeconds                                   0.087977                       # Number of seconds simulated (Second)
simTicks                                  87977376000                       # Number of ticks simulated (Tick)
finalTick                                 87977376000                       # Number of ticks from beginning of simulation (restored from checkpoints and never reset) (Tick)
simFreq                                  1000000000000                       # The number of ticks per simulated second ((Tick/Second))
hostSeconds                                   2257.88                       # Real time elapsed on the host (Second)
hostTickRate                                 38964530                       # The number of ticks simulated per host second (ticks/s) ((Tick/Second))
hostMemory                                     666544                       # Number of bytes of host memory used (Byte)
simInsts                                    172916971                       # Number of instructions simulated (Count)
simOps                                      263412208                       # Number of ops (including micro ops) simulated (Count)
hostInstRate                                    76584                       # Simulator instruction rate (inst/s) ((Count/Second))
hostOpRate                                     116663                       # Simulator op (including micro ops) rate (op/s) ((Count/Second))
system.clk_domain.clock                          1000                       # Clock period in ticks (Tick)
system.cpu.numCycles                        175954753                       # Number of cpu cycles simulated (Cycle)
system.cpu.numWorkItemsStarted                      0                       # Number of work items this cpu started (Count)
system.cpu.numWorkItemsCompleted                    0                       # Number of work items this cpu completed (Count)
system.cpu.instsAdded                       520382109                       # Number of instructions added to the IQ (excludes non-spec) (Count)
system.cpu.nonSpecInstsAdded                        7                       # Number of non-speculative instructions added to the IQ (Count)
system.cpu.instsIssued                      392180644                       # Number of instructions issued (Count)
system.cpu.squashedInstsIssued                 204433                       # Number of squashed instructions issued (Count)
system.cpu.squashedInstsExamined            256969902                       # Number of squashed instructions iterated over during squash; mainly for profiling (Count)
system.cpu.squashedOperandsExamined         586990991                       # Number of squashed operands that are examined and possibly removed from graph (Count)
system.cpu.squashedNonSpecRemoved                   7                       # Number of squashed non-spec instructions that were removed (Count)
system.cpu.numIssuedDist::samples           175890570                       # Number of insts issued each cycle (Count)
system.cpu.numIssuedDist::mean               2.229685                       # Number of insts issued each cycle (Count)
system.cpu.numIssuedDist::stdev              2.028779                       # Number of insts issued each cycle (Count)
system.cpu.numIssuedDist::underflows                0      0.00%      0.00% # Number of insts issued each cycle (Count)
system.cpu.numIssuedDist::0                  57711534     32.81%     32.81% # Number of insts issued each cycle (Count)
system.cpu.numIssuedDist::1                  15593709      8.87%     41.68% # Number of insts issued each cycle (Count)
system.cpu.numIssuedDist::2                  23279519     13.24%     54.91% # Number of insts issued each cycle (Count)
system.cpu.numIssuedDist::3                  30074289     17.10%     72.01% # Number of insts issued each cycle (Count)
system.cpu.numIssuedDist::4                  22815650     12.97%     84.98% # Number of insts issued each cycle (Count)
system.cpu.numIssuedDist::5                  14790874      8.41%     93.39% # Number of insts issued each cycle (Count)
system.cpu.numIssuedDist::6                   8047935      4.58%     97.97% # Number of insts issued each cycle (Count)
system.cpu.numIssuedDist::7                   2441769      1.39%     99.35% # Number of insts issued each cycle (Count)
system.cpu.numIssuedDist::8                   1021427      0.58%     99.94% # Number of insts issued each cycle (Count)
system.cpu.numIssuedDist::9                    101999      0.06%     99.99% # Number of insts issued each cycle (Count)
system.cpu.numIssuedDist::10                    11855      0.01%    100.00% # Number of insts issued each cycle (Count)
system.cpu.numIssuedDist::11                       10      0.00%    100.00% # Number of insts issued each cycle (Count)
system.cpu.numIssuedDist::12                        0      0.00%    100.00% # Number of insts issued each cycle (Count)
system.cpu.numIssuedDist::overflows                 0      0.00%    100.00% # Number of insts issued each cycle (Count)
system.cpu.numIssuedDist::min_value                 0                       # Number of insts issued each cycle (Count)
system.cpu.numIssuedDist::max_value                11                       # Number of insts issued each cycle (Count)
system.cpu.numIssuedDist::total             175890570                       # Number of insts issued each cycle (Count)
system.cpu.statFuBusy::No_OpClass                   0      0.00%      0.00% # attempts to use FU when none available (Count)
system.cpu.statFuBusy::IntAlu                 1100767     13.66%     13.66% # attempts to use FU when none available (Count)
system.cpu.statFuBusy::IntMult                      0      0.00%     13.66% # attempts to use FU when none available (Count)
system.cpu.statFuBusy::IntDiv                       0      0.00%     13.66% # attempts to use FU when none available (Count)
system.cpu.statFuBusy::FloatAdd                     0      0.00%     13.66% # attempts to use FU when none available (Count)
system.cpu.statFuBusy::FloatCmp                     0      0.00%     13.66% # attempts to use FU when none available (Count)
system.cpu.statFuBusy::FloatCvt                     0      0.00%     13.66% # attempts to use FU when none available (Count)
system.cpu.statFuBusy::FloatMult                    0      0.00%     13.66% # attempts to use FU when none available (Count)
system.cpu.statFuBusy::FloatMultAcc                 0      0.00%     13.66% # attempts to use FU when none available (Count)
system.cpu.statFuBusy::FloatDiv                     0      0.00%     13.66% # attempts to use FU when none available (Count)
system.cpu.statFuBusy::FloatMisc                    0      0.00%     13.66% # attempts to use FU when none available (Count)
system.cpu.statFuBusy::FloatSqrt                    0      0.00%     13.66% # attempts to use FU when none available (Count)
system.cpu.statFuBusy::SimdAdd                      0      0.00%     13.66% # attempts to use FU when none available (Count)
system.cpu.statFuBusy::SimdAddAcc                   0      0.00%     13.66% # attempts to use FU when none available (Count)
system.cpu.statFuBusy::SimdAlu                    133      0.00%     13.66% # attempts to use FU when none available (Count)
system.cpu.statFuBusy::SimdCmp                      0      0.00%     13.66% # attempts to use FU when none available (Count)
system.cpu.statFuBusy::SimdCvt                      3      0.00%     13.66% # attempts to use FU when none available (Count)
system.cpu.statFuBusy::SimdMisc                     2      0.00%     13.66% # attempts to use FU when none available (Count)
system.cpu.statFuBusy::SimdMult                     0      0.00%     13.66% # attempts to use FU when none available (Count)
system.cpu.statFuBusy::SimdMultAcc                  0      0.00%     13.66% # attempts to use FU when none available (Count)
system.cpu.statFuBusy::SimdShift                    0      0.00%     13.66% # attempts to use FU when none available (Count)
system.cpu.statFuBusy::SimdShiftAcc                 0      0.00%     13.66% # attempts to use FU when none available (Count)
system.cpu.statFuBusy::SimdDiv                      0      0.00%     13.66% # attempts to use FU when none available (Count)
system.cpu.statFuBusy::SimdSqrt                     0      0.00%     13.66% # attempts to use FU when none available (Count)
system.cpu.statFuBusy::SimdFloatAdd                 0      0.00%     13.66% # attempts to use FU when none available (Count)
system.cpu.statFuBusy::SimdFloatAlu                 0      0.00%     13.66% # attempts to use FU when none available (Count)
system.cpu.statFuBusy::SimdFloatCmp                 0      0.00%     13.66% # attempts to use FU when none available (Count)
system.cpu.statFuBusy::SimdFloatCvt                 0      0.00%     13.66% # attempts to use FU when none available (Count)
system.cpu.statFuBusy::SimdFloatDiv                 0      0.00%     13.66% # attempts to use FU when none available (Count)
system.cpu.statFuBusy::SimdFloatMisc                0      0.00%     13.66% # attempts to use FU when none available (Count)
system.cpu.statFuBusy::SimdFloatMult                0      0.00%     13.66% # attempts to use FU when none available (Count)
system.cpu.statFuBusy::SimdFloatMultAcc             0      0.00%     13.66% # attempts to use FU when none available (Count)
system.cpu.statFuBusy::SimdFloatSqrt                0      0.00%     13.66% # attempts to use FU when none available (Count)
system.cpu.statFuBusy::SimdReduceAdd                0      0.00%     13.66% # attempts to use FU when none available (Count)
system.cpu.statFuBusy::SimdReduceAlu                0      0.00%     13.66% # attempts to use FU when none available (Count)
system.cpu.statFuBusy::SimdReduceCmp                0      0.00%     13.66% # attempts to use FU when none available (Count)
system.cpu.statFuBusy::SimdFloatReduceAdd            0      0.00%     13.66% # attempts to use FU when none available (Count)
system.cpu.statFuBusy::SimdFloatReduceCmp            0      0.00%     13.66% # attempts to use FU when none available (Count)
system.cpu.statFuBusy::SimdAes                      0      0.00%     13.66% # attempts to use FU when none available (Count)
system.cpu.statFuBusy::SimdAesMix                   0      0.00%     13.66% # attempts to use FU when none available (Count)
system.cpu.statFuBusy::SimdSha1Hash                 0      0.00%     13.66% # attempts to use FU when none available (Count)
system.cpu.statFuBusy::SimdSha1Hash2                0      0.00%     13.66% # attempts to use FU when none available (Count)
system.cpu.statFuBusy::SimdSha256Hash               0      0.00%     13.66% # attempts to use FU when none available (Count)
system.cpu.statFuBusy::SimdSha256Hash2              0      0.00%     13.66% # attempts to use FU when none available (Count)
system.cpu.statFuBusy::SimdShaSigma2                0      0.00%     13.66% # attempts to use FU when none available (Count)
system.cpu.statFuBusy::SimdShaSigma3                0      0.00%     13.66% # attempts to use FU when none available (Count)
system.cpu.statFuBusy::SimdPredAlu                  0      0.00%     13.66% # attempts to use FU when none available (Count)
system.cpu.statFuBusy::MemRead                6683899     82.93%     96.59% # attempts to use FU when none available (Count)
system.cpu.statFuBusy::MemWrite                274163      3.40%     99.99% # attempts to use FU when none available (Count)
system.cpu.statFuBusy::FloatMemRead                 5      0.00%     99.99% # attempts to use FU when none available (Count)
system.cpu.statFuBusy::FloatMemWrite              429      0.01%    100.00% # attempts to use FU when none available (Count)
system.cpu.statFuBusy::IprAccess                    0      0.00%    100.00% # attempts to use FU when none available (Count)
system.cpu.statFuBusy::InstPrefetch                 0      0.00%    100.00% # attempts to use FU when none available (Count)
system.cpu.statIssuedInstType_0::No_OpClass      1311593      0.33%      0.33% # Number of instructions issued per FU type, per thread (Count)
system.cpu.statIssuedInstType_0::IntAlu     238823775     60.90%     61.23% # Number of instructions issued per FU type, per thread (Count)
system.cpu.statIssuedInstType_0::IntMult      1502626      0.38%     61.61% # Number of instructions issued per FU type, per thread (Count)
system.cpu.statIssuedInstType_0::IntDiv           732      0.00%     61.61% # Number of instructions issued per FU type, per thread (Count)
system.cpu.statIssuedInstType_0::FloatAdd          359      0.00%     61.61% # Number of instructions issued per FU type, per thread (Count)
system.cpu.statIssuedInstType_0::FloatCmp            0      0.00%     61.61% # Number of instructions issued per FU type, per thread (Count)
system.cpu.statIssuedInstType_0::FloatCvt            0      0.00%     61.61% # Number of instructions issued per FU type, per thread (Count)
system.cpu.statIssuedInstType_0::FloatMult            0      0.00%     61.61% # Number of instructions issued per FU type, per thread (Count)
system.cpu.statIssuedInstType_0::FloatMultAcc            0      0.00%     61.61% # Number of instructions issued per FU type, per thread (Count)
system.cpu.statIssuedInstType_0::FloatDiv            0      0.00%     61.61% # Number of instructions issued per FU type, per thread (Count)
system.cpu.statIssuedInstType_0::FloatMisc            0      0.00%     61.61% # Number of instructions issued per FU type, per thread (Count)
system.cpu.statIssuedInstType_0::FloatSqrt            0      0.00%     61.61% # Number of instructions issued per FU type, per thread (Count)
system.cpu.statIssuedInstType_0::SimdAdd            0      0.00%     61.61% # Number of instructions issued per FU type, per thread (Count)
system.cpu.statIssuedInstType_0::SimdAddAcc            0      0.00%     61.61% # Number of instructions issued per FU type, per thread (Count)
system.cpu.statIssuedInstType_0::SimdAlu         2514      0.00%     61.61% # Number of instructions issued per FU type, per thread (Count)
system.cpu.statIssuedInstType_0::SimdCmp            0      0.00%     61.61% # Number of instructions issued per FU type, per thread (Count)
system.cpu.statIssuedInstType_0::SimdCvt          919      0.00%     61.62% # Number of instructions issued per FU type, per thread (Count)
system.cpu.statIssuedInstType_0::SimdMisc         2034      0.00%     61.62% # Number of instructions issued per FU type, per thread (Count)
system.cpu.statIssuedInstType_0::SimdMult            0      0.00%     61.62% # Number of instructions issued per FU type, per thread (Count)
system.cpu.statIssuedInstType_0::SimdMultAcc            0      0.00%     61.62% # Number of instructions issued per FU type, per thread (Count)
system.cpu.statIssuedInstType_0::SimdShift            0      0.00%     61.62% # Number of instructions issued per FU type, per thread (Count)
system.cpu.statIssuedInstType_0::SimdShiftAcc            0      0.00%     61.62% # Number of instructions issued per FU type, per thread (Count)
system.cpu.statIssuedInstType_0::SimdDiv            0      0.00%     61.62% # Number of instructions issued per FU type, per thread (Count)
system.cpu.statIssuedInstType_0::SimdSqrt            0      0.00%     61.62% # Number of instructions issued per FU type, per thread (Count)
system.cpu.statIssuedInstType_0::SimdFloatAdd            0      0.00%     61.62% # Number of instructions issued per FU type, per thread (Count)
system.cpu.statIssuedInstType_0::SimdFloatAlu            0      0.00%     61.62% # Number of instructions issued per FU type, per thread (Count)
system.cpu.statIssuedInstType_0::SimdFloatCmp            0      0.00%     61.62% # Number of instructions issued per FU type, per thread (Count)
system.cpu.statIssuedInstType_0::SimdFloatCvt            0      0.00%     61.62% # Number of instructions issued per FU type, per thread (Count)
system.cpu.statIssuedInstType_0::SimdFloatDiv            0      0.00%     61.62% # Number of instructions issued per FU type, per thread (Count)
system.cpu.statIssuedInstType_0::SimdFloatMisc            0      0.00%     61.62% # Number of instructions issued per FU type, per thread (Count)
system.cpu.statIssuedInstType_0::SimdFloatMult            0      0.00%     61.62% # Number of instructions issued per FU type, per thread (Count)
system.cpu.statIssuedInstType_0::SimdFloatMultAcc            0      0.00%     61.62% # Number of instructions issued per FU type, per thread (Count)
system.cpu.statIssuedInstType_0::SimdFloatSqrt            0      0.00%     61.62% # Number of instructions issued per FU type, per thread (Count)
system.cpu.statIssuedInstType_0::SimdReduceAdd            0      0.00%     61.62% # Number of instructions issued per FU type, per thread (Count)
system.cpu.statIssuedInstType_0::SimdReduceAlu            0      0.00%     61.62% # Number of instructions issued per FU type, per thread (Count)
system.cpu.statIssuedInstType_0::SimdReduceCmp            0      0.00%     61.62% # Number of instructions issued per FU type, per thread (Count)
system.cpu.statIssuedInstType_0::SimdFloatReduceAdd            0      0.00%     61.62% # Number of instructions issued per FU type, per thread (Count)
system.cpu.statIssuedInstType_0::SimdFloatReduceCmp            0      0.00%     61.62% # Number of instructions issued per FU type, per thread (Count)
system.cpu.statIssuedInstType_0::SimdAes            0      0.00%     61.62% # Number of instructions issued per FU type, per thread (Count)
system.cpu.statIssuedInstType_0::SimdAesMix            0      0.00%     61.62% # Number of instructions issued per FU type, per thread (Count)
system.cpu.statIssuedInstType_0::SimdSha1Hash            0      0.00%     61.62% # Number of instructions issued per FU type, per thread (Count)
system.cpu.statIssuedInstType_0::SimdSha1Hash2            0      0.00%     61.62% # Number of instructions issued per FU type, per thread (Count)
system.cpu.statIssuedInstType_0::SimdSha256Hash            0      0.00%     61.62% # Number of instructions issued per FU type, per thread (Count)
system.cpu.statIssuedInstType_0::SimdSha256Hash2            0      0.00%     61.62% # Number of instructions issued per FU type, per thread (Count)
system.cpu.statIssuedInstType_0::SimdShaSigma2            0      0.00%     61.62% # Number of instructions issued per FU type, per thread (Count)
system.cpu.statIssuedInstType_0::SimdShaSigma3            0      0.00%     61.62% # Number of instructions issued per FU type, per thread (Count)
system.cpu.statIssuedInstType_0::SimdPredAlu            0      0.00%     61.62% # Number of instructions issued per FU type, per thread (Count)
system.cpu.statIssuedInstType_0::MemRead    125060247     31.89%     93.50% # Number of instructions issued per FU type, per thread (Count)
system.cpu.statIssuedInstType_0::MemWrite     25472942      6.50%    100.00% # Number of instructions issued per FU type, per thread (Count)
system.cpu.statIssuedInstType_0::FloatMemRead         1052      0.00%    100.00% # Number of instructions issued per FU type, per thread (Count)
system.cpu.statIssuedInstType_0::FloatMemWrite         1851      0.00%    100.00% # Number of instructions issued per FU type, per thread (Count)
system.cpu.statIssuedInstType_0::IprAccess            0      0.00%    100.00% # Number of instructions issued per FU type, per thread (Count)
system.cpu.statIssuedInstType_0::InstPrefetch            0      0.00%    100.00% # Number of instructions issued per FU type, per thread (Count)
system.cpu.statIssuedInstType_0::total      392180644                       # Number of instructions issued per FU type, per thread (Count)
system.cpu.issueRate                         2.228872                       # Inst issue rate ((Count/Cycle))
system.cpu.fuBusy                             8059401                       # FU busy when requested (Count)
system.cpu.fuBusyRate                        0.020550                       # FU busy rate (busy events/executed inst) ((Count/Count))
system.cpu.intInstQueueReads                968495669                       # Number of integer instruction queue reads (Count)
system.cpu.intInstQueueWrites               777344303                       # Number of integer instruction queue writes (Count)
system.cpu.intInstQueueWakeupAccesses       380498385                       # Number of integer instruction queue wakeup accesses (Count)
system.cpu.fpInstQueueReads                     20023                       # Number of floating instruction queue reads (Count)
system.cpu.fpInstQueueWrites                    17068                       # Number of floating instruction queue writes (Count)
system.cpu.fpInstQueueWakeupAccesses             8926                       # Number of floating instruction queue wakeup accesses (Count)
system.cpu.vecInstQueueReads                        0                       # Number of vector instruction queue reads (Count)
system.cpu.vecInstQueueWrites                       0                       # Number of vector instruction queue writes (Count)
system.cpu.vecInstQueueWakeupAccesses               0                       # Number of vector instruction queue wakeup accesses (Count)
system.cpu.intAluAccesses                   398918403                       # Number of integer alu accesses (Count)
system.cpu.fpAluAccesses                        10049                       # Number of floating point alu accesses (Count)
system.cpu.vecAluAccesses                           0                       # Number of vector alu accesses (Count)
system.cpu.numInsts                         385818130                       # Number of executed instructions (Count)
system.cpu.numLoadInsts                     122082810                       # Number of load instructions executed (Count)
system.cpu.numSquashedInsts                   6362514                       # Number of squashed instructions skipped in execute (Count)
system.cpu.numSwp                                   0                       # Number of swp insts executed (Count)
system.cpu.numNop                                   0                       # Number of nop insts executed (Count)
system.cpu.numRefs                          146284432                       # Number of memory reference insts executed (Count)
system.cpu.numBranches                       23587530                       # Number of branches executed (Count)
system.cpu.numStoreInsts                     24201622                       # Number of stores executed (Count)
system.cpu.numRate                           2.192712                       # Inst execution rate ((Count/Cycle))
system.cpu.timesIdled                            1453                       # Number of times that the entire CPU went into an idle state and unscheduled itself (Count)
system.cpu.idleCycles                           64183                       # Total number of cycles that the CPU has spent unscheduled due to idling (Cycle)
system.cpu.committedInsts                   172916971                       # Number of Instructions Simulated (Count)
system.cpu.committedOps                     263412208                       # Number of Ops (including micro ops) Simulated (Count)
system.cpu.cpi                               1.017568                       # CPI: Cycles Per Instruction ((Cycle/Count))
system.cpu.totalCpi                          1.017568                       # CPI: Total CPI of All Threads ((Cycle/Count))
system.cpu.ipc                               0.982735                       # IPC: Instructions Per Cycle ((Count/Cycle))
system.cpu.totalIpc                          0.982735                       # IPC: Total IPC of All Threads ((Count/Cycle))
system.cpu.intRegfileReads                  439580244                       # Number of integer regfile reads (Count)
system.cpu.intRegfileWrites                 316554491                       # Number of integer regfile writes (Count)
system.cpu.fpRegfileReads                       14566                       # Number of floating regfile reads (Count)
system.cpu.fpRegfileWrites                       6908                       # Number of floating regfile writes (Count)
system.cpu.ccRegfileReads                    86450455                       # number of cc regfile reads (Count)
system.cpu.ccRegfileWrites                  111227455                       # number of cc regfile writes (Count)
system.cpu.miscRegfileReads                 207107394                       # number of misc regfile reads (Count)
system.cpu.MemDepUnit__0.insertedLoads      167300517                       # Number of loads inserted to the mem dependence unit. (Count)
system.cpu.MemDepUnit__0.insertedStores      38852009                       # Number of stores inserted to the mem dependence unit. (Count)
system.cpu.MemDepUnit__0.conflictingLoads    105481948                       # Number of conflicting loads. (Count)
system.cpu.MemDepUnit__0.conflictingStores     22827973                       # Number of conflicting stores. (Count)
system.cpu.MemDepUnit__1.insertedLoads              0                       # Number of loads inserted to the mem dependence unit. (Count)
system.cpu.MemDepUnit__1.insertedStores             0                       # Number of stores inserted to the mem dependence unit. (Count)
system.cpu.MemDepUnit__1.conflictingLoads            0                       # Number of conflicting loads. (Count)
system.cpu.MemDepUnit__1.conflictingStores            0                       # Number of conflicting stores. (Count)
system.cpu.MemDepUnit__2.insertedLoads              0                       # Number of loads inserted to the mem dependence unit. (Count)
system.cpu.MemDepUnit__2.insertedStores             0                       # Number of stores inserted to the mem dependence unit. (Count)
system.cpu.MemDepUnit__2.conflictingLoads            0                       # Number of conflicting loads. (Count)
system.cpu.MemDepUnit__2.conflictingStores            0                       # Number of conflicting stores. (Count)
system.cpu.MemDepUnit__3.insertedLoads              0                       # Number of loads inserted to the mem dependence unit. (Count)
system.cpu.MemDepUnit__3.insertedStores             0                       # Number of stores inserted to the mem dependence unit. (Count)
system.cpu.MemDepUnit__3.conflictingLoads            0                       # Number of conflicting loads. (Count)
system.cpu.MemDepUnit__3.conflictingStores            0                       # Number of conflicting stores. (Count)
system.cpu.branchPred.lookups                45356375                       # Number of BP lookups (Count)
system.cpu.branchPred.condPredicted          35889347                       # Number of conditional branches predicted (Count)
system.cpu.branchPred.condIncorrect           3471893                       # Number of conditional branches incorrect (Count)
system.cpu.branchPred.BTBLookups             27856606                       # Number of BTB lookups (Count)
system.cpu.branchPred.BTBUpdates              1617355                       # Number of BTB updates (Count)
system.cpu.branchPred.BTBHits                27854016                       # Number of BTB hits (Count)
system.cpu.branchPred.BTBHitRatio            0.999907                       # BTB Hit Ratio (Ratio)
system.cpu.branchPred.RASUsed                 2124144                       # Number of times the RAS was used to get a target. (Count)
system.cpu.branchPred.RASIncorrect               2840                       # Number of incorrect RAS predictions. (Count)
system.cpu.branchPred.indirectLookups            2060                       # Number of indirect predictor lookups. (Count)
system.cpu.branchPred.indirectHits               1593                       # Number of indirect target hits. (Count)
system.cpu.branchPred.indirectMisses              467                       # Number of indirect misses. (Count)
system.cpu.branchPred.indirectMispredicted          138                       # Number of mispredicted indirect branches. (Count)
system.cpu.commit.commitSquashedInsts       256964314                       # The number of squashed insts skipped by commit (Count)
system.cpu.commit.branchMispredicts           3471636                       # The number of times a branch was mispredicted (Count)
system.cpu.commit.numCommittedDist::samples    141925495                       # Number of insts commited each cycle (Count)
system.cpu.commit.numCommittedDist::mean     1.855989                       # Number of insts commited each cycle (Count)
system.cpu.commit.numCommittedDist::stdev     2.434609                       # Number of insts commited each cycle (Count)
system.cpu.commit.numCommittedDist::underflows            0      0.00%      0.00% # Number of insts commited each cycle (Count)
system.cpu.commit.numCommittedDist::0        52637476     37.09%     37.09% # Number of insts commited each cycle (Count)
system.cpu.commit.numCommittedDist::1        36478941     25.70%     62.79% # Number of insts commited each cycle (Count)
system.cpu.commit.numCommittedDist::2        19581060     13.80%     76.59% # Number of insts commited each cycle (Count)
system.cpu.commit.numCommittedDist::3         8706641      6.13%     82.72% # Number of insts commited each cycle (Count)
system.cpu.commit.numCommittedDist::4         5329029      3.75%     86.48% # Number of insts commited each cycle (Count)
system.cpu.commit.numCommittedDist::5         2898155      2.04%     88.52% # Number of insts commited each cycle (Count)
system.cpu.commit.numCommittedDist::6         2028464      1.43%     89.95% # Number of insts commited each cycle (Count)
system.cpu.commit.numCommittedDist::7          452283      0.32%     90.27% # Number of insts commited each cycle (Count)
system.cpu.commit.numCommittedDist::8        13813446      9.73%    100.00% # Number of insts commited each cycle (Count)
system.cpu.commit.numCommittedDist::overflows            0      0.00%    100.00% # Number of insts commited each cycle (Count)
system.cpu.commit.numCommittedDist::min_value            0                       # Number of insts commited each cycle (Count)
system.cpu.commit.numCommittedDist::max_value            8                       # Number of insts commited each cycle (Count)
system.cpu.commit.numCommittedDist::total    141925495                       # Number of insts commited each cycle (Count)
system.cpu.commit.instsCommitted            172916971                       # Number of instructions committed (Count)
system.cpu.commit.opsCommitted              263412208                       # Number of ops (including micro ops) committed (Count)
system.cpu.commit.memRefs                    99052922                       # Number of memory references committed (Count)
system.cpu.commit.loads                      79726499                       # Number of loads committed (Count)
system.cpu.commit.amos                              0                       # Number of atomic instructions committed (Count)
system.cpu.commit.membars                           0                       # Number of memory barriers committed (Count)
system.cpu.commit.branches                   18226474                       # Number of branches committed (Count)
system.cpu.commit.vectorInstructions                0                       # Number of committed Vector instructions. (Count)
system.cpu.commit.floating                       6174                       # Number of committed floating point instructions. (Count)
system.cpu.commit.integer                   262017643                       # Number of committed integer instructions. (Count)
system.cpu.commit.functionCalls                945255                       # Number of function calls committed. (Count)
system.cpu.commit.committedInstType_0::No_OpClass       946295      0.36%      0.36% # Class of committed instruction (Count)
system.cpu.commit.committedInstType_0::IntAlu    161907659     61.47%     61.82% # Class of committed instruction (Count)
system.cpu.commit.committedInstType_0::IntMult      1500505      0.57%     62.39% # Class of committed instruction (Count)
system.cpu.commit.committedInstType_0::IntDiv          721      0.00%     62.39% # Class of committed instruction (Count)
system.cpu.commit.committedInstType_0::FloatAdd          344      0.00%     62.39% # Class of committed instruction (Count)
system.cpu.commit.committedInstType_0::FloatCmp            0      0.00%     62.39% # Class of committed instruction (Count)
system.cpu.commit.committedInstType_0::FloatCvt            0      0.00%     62.39% # Class of committed instruction (Count)
system.cpu.commit.committedInstType_0::FloatMult            0      0.00%     62.39% # Class of committed instruction (Count)
system.cpu.commit.committedInstType_0::FloatMultAcc            0      0.00%     62.39% # Class of committed instruction (Count)
system.cpu.commit.committedInstType_0::FloatDiv            0      0.00%     62.39% # Class of committed instruction (Count)
system.cpu.commit.committedInstType_0::FloatMisc            0      0.00%     62.39% # Class of committed instruction (Count)
system.cpu.commit.committedInstType_0::FloatSqrt            0      0.00%     62.39% # Class of committed instruction (Count)
system.cpu.commit.committedInstType_0::SimdAdd            0      0.00%     62.39% # Class of committed instruction (Count)
system.cpu.commit.committedInstType_0::SimdAddAcc            0      0.00%     62.39% # Class of committed instruction (Count)
system.cpu.commit.committedInstType_0::SimdAlu          896      0.00%     62.40% # Class of committed instruction (Count)
system.cpu.commit.committedInstType_0::SimdCmp            0      0.00%     62.40% # Class of committed instruction (Count)
system.cpu.commit.committedInstType_0::SimdCvt          846      0.00%     62.40% # Class of committed instruction (Count)
system.cpu.commit.committedInstType_0::SimdMisc         2020      0.00%     62.40% # Class of committed instruction (Count)
system.cpu.commit.committedInstType_0::SimdMult            0      0.00%     62.40% # Class of committed instruction (Count)
system.cpu.commit.committedInstType_0::SimdMultAcc            0      0.00%     62.40% # Class of committed instruction (Count)
system.cpu.commit.committedInstType_0::SimdShift            0      0.00%     62.40% # Class of committed instruction (Count)
system.cpu.commit.committedInstType_0::SimdShiftAcc            0      0.00%     62.40% # Class of committed instruction (Count)
system.cpu.commit.committedInstType_0::SimdDiv            0      0.00%     62.40% # Class of committed instruction (Count)
system.cpu.commit.committedInstType_0::SimdSqrt            0      0.00%     62.40% # Class of committed instruction (Count)
system.cpu.commit.committedInstType_0::SimdFloatAdd            0      0.00%     62.40% # Class of committed instruction (Count)
system.cpu.commit.committedInstType_0::SimdFloatAlu            0      0.00%     62.40% # Class of committed instruction (Count)
system.cpu.commit.committedInstType_0::SimdFloatCmp            0      0.00%     62.40% # Class of committed instruction (Count)
system.cpu.commit.committedInstType_0::SimdFloatCvt            0      0.00%     62.40% # Class of committed instruction (Count)
system.cpu.commit.committedInstType_0::SimdFloatDiv            0      0.00%     62.40% # Class of committed instruction (Count)
system.cpu.commit.committedInstType_0::SimdFloatMisc            0      0.00%     62.40% # Class of committed instruction (Count)
system.cpu.commit.committedInstType_0::SimdFloatMult            0      0.00%     62.40% # Class of committed instruction (Count)
system.cpu.commit.committedInstType_0::SimdFloatMultAcc            0      0.00%     62.40% # Class of committed instruction (Count)
system.cpu.commit.committedInstType_0::SimdFloatSqrt            0      0.00%     62.40% # Class of committed instruction (Count)
system.cpu.commit.committedInstType_0::SimdReduceAdd            0      0.00%     62.40% # Class of committed instruction (Count)
system.cpu.commit.committedInstType_0::SimdReduceAlu            0      0.00%     62.40% # Class of committed instruction (Count)
system.cpu.commit.committedInstType_0::SimdReduceCmp            0      0.00%     62.40% # Class of committed instruction (Count)
system.cpu.commit.committedInstType_0::SimdFloatReduceAdd            0      0.00%     62.40% # Class of committed instruction (Count)
system.cpu.commit.committedInstType_0::SimdFloatReduceCmp            0      0.00%     62.40% # Class of committed instruction (Count)
system.cpu.commit.committedInstType_0::SimdAes            0      0.00%     62.40% # Class of committed instruction (Count)
system.cpu.commit.committedInstType_0::SimdAesMix            0      0.00%     62.40% # Class of committed instruction (Count)
system.cpu.commit.committedInstType_0::SimdSha1Hash            0      0.00%     62.40% # Class of committed instruction (Count)
system.cpu.commit.committedInstType_0::SimdSha1Hash2            0      0.00%     62.40% # Class of committed instruction (Count)
system.cpu.commit.committedInstType_0::SimdSha256Hash            0      0.00%     62.40% # Class of committed instruction (Count)
system.cpu.commit.committedInstType_0::SimdSha256Hash2            0      0.00%     62.40% # Class of committed instruction (Count)
system.cpu.commit.committedInstType_0::SimdShaSigma2            0      0.00%     62.40% # Class of committed instruction (Count)
system.cpu.commit.committedInstType_0::SimdShaSigma3            0      0.00%     62.40% # Class of committed instruction (Count)
system.cpu.commit.committedInstType_0::SimdPredAlu            0      0.00%     62.40% # Class of committed instruction (Count)
system.cpu.commit.committedInstType_0::MemRead     79725851     30.27%     92.66% # Class of committed instruction (Count)
system.cpu.commit.committedInstType_0::MemWrite     19325746      7.34%    100.00% # Class of committed instruction (Count)
system.cpu.commit.committedInstType_0::FloatMemRead          648      0.00%    100.00% # Class of committed instruction (Count)
system.cpu.commit.committedInstType_0::FloatMemWrite          677      0.00%    100.00% # Class of committed instruction (Count)
system.cpu.commit.committedInstType_0::IprAccess            0      0.00%    100.00% # Class of committed instruction (Count)
system.cpu.commit.committedInstType_0::InstPrefetch            0      0.00%    100.00% # Class of committed instruction (Count)
system.cpu.commit.committedInstType_0::total    263412208                       # Class of committed instruction (Count)
system.cpu.commit.commitEligibleSamples      13813446                       # number cycles where commit BW limit reached (Cycle)
system.cpu.dcache.demandHits::cpu.data      105599004                       # number of demand (read+write) hits (Count)
system.cpu.dcache.demandHits::total         105599004                       # number of demand (read+write) hits (Count)
system.cpu.dcache.overallHits::cpu.data     105599004                       # number of overall hits (Count)
system.cpu.dcache.overallHits::total        105599004                       # number of overall hits (Count)
system.cpu.dcache.demandMisses::cpu.data         1467                       # number of demand (read+write) misses (Count)
system.cpu.dcache.demandMisses::total            1467                       # number of demand (read+write) misses (Count)
system.cpu.dcache.overallMisses::cpu.data         1467                       # number of overall misses (Count)
system.cpu.dcache.overallMisses::total           1467                       # number of overall misses (Count)
system.cpu.dcache.demandMissLatency::cpu.data     82409000                       # number of demand (read+write) miss ticks (Tick)
system.cpu.dcache.demandMissLatency::total     82409000                       # number of demand (read+write) miss ticks (Tick)
system.cpu.dcache.overallMissLatency::cpu.data     82409000                       # number of overall miss ticks (Tick)
system.cpu.dcache.overallMissLatency::total     82409000                       # number of overall miss ticks (Tick)
system.cpu.dcache.demandAccesses::cpu.data    105600471                       # number of demand (read+write) accesses (Count)
system.cpu.dcache.demandAccesses::total     105600471                       # number of demand (read+write) accesses (Count)
system.cpu.dcache.overallAccesses::cpu.data    105600471                       # number of overall (read+write) accesses (Count)
system.cpu.dcache.overallAccesses::total    105600471                       # number of overall (read+write) accesses (Count)
system.cpu.dcache.demandMissRate::cpu.data     0.000014                       # miss rate for demand accesses (Ratio)
system.cpu.dcache.demandMissRate::total      0.000014                       # miss rate for demand accesses (Ratio)
system.cpu.dcache.overallMissRate::cpu.data     0.000014                       # miss rate for overall accesses (Ratio)
system.cpu.dcache.overallMissRate::total     0.000014                       # miss rate for overall accesses (Ratio)
system.cpu.dcache.demandAvgMissLatency::cpu.data 56175.187457                       # average overall miss latency in ticks ((Tick/Count))
system.cpu.dcache.demandAvgMissLatency::total 56175.187457                       # average overall miss latency in ticks ((Tick/Count))
system.cpu.dcache.overallAvgMissLatency::cpu.data 56175.187457                       # average overall miss latency ((Tick/Count))
system.cpu.dcache.overallAvgMissLatency::total 56175.187457                       # average overall miss latency ((Tick/Count))
system.cpu.dcache.blockedCycles::no_mshrs          393                       # number of cycles access was blocked (Cycle)
system.cpu.dcache.blockedCycles::no_targets            0                       # number of cycles access was blocked (Cycle)
system.cpu.dcache.blockedCauses::no_mshrs           13                       # number of times access was blocked (Count)
system.cpu.dcache.blockedCauses::no_targets            0                       # number of times access was blocked (Count)
system.cpu.dcache.avgBlocked::no_mshrs      30.230769                       # average number of cycles each access was blocked ((Cycle/Count))
system.cpu.dcache.avgBlocked::no_targets          nan                       # average number of cycles each access was blocked ((Cycle/Count))
system.cpu.dcache.writebacks::writebacks          106                       # number of writebacks (Count)
system.cpu.dcache.writebacks::total               106                       # number of writebacks (Count)
system.cpu.dcache.demandMshrHits::cpu.data          585                       # number of demand (read+write) MSHR hits (Count)
system.cpu.dcache.demandMshrHits::total           585                       # number of demand (read+write) MSHR hits (Count)
system.cpu.dcache.overallMshrHits::cpu.data          585                       # number of overall MSHR hits (Count)
system.cpu.dcache.overallMshrHits::total          585                       # number of overall MSHR hits (Count)
system.cpu.dcache.demandMshrMisses::cpu.data          882                       # number of demand (read+write) MSHR misses (Count)
system.cpu.dcache.demandMshrMisses::total          882                       # number of demand (read+write) MSHR misses (Count)
system.cpu.dcache.overallMshrMisses::cpu.data          882                       # number of overall MSHR misses (Count)
system.cpu.dcache.overallMshrMisses::total          882                       # number of overall MSHR misses (Count)
system.cpu.dcache.demandMshrMissLatency::cpu.data     52236000                       # number of demand (read+write) MSHR miss ticks (Tick)
system.cpu.dcache.demandMshrMissLatency::total     52236000                       # number of demand (read+write) MSHR miss ticks (Tick)
system.cpu.dcache.overallMshrMissLatency::cpu.data     52236000                       # number of overall MSHR miss ticks (Tick)
system.cpu.dcache.overallMshrMissLatency::total     52236000                       # number of overall MSHR miss ticks (Tick)
system.cpu.dcache.demandMshrMissRate::cpu.data     0.000008                       # mshr miss ratio for demand accesses (Ratio)
system.cpu.dcache.demandMshrMissRate::total     0.000008                       # mshr miss ratio for demand accesses (Ratio)
system.cpu.dcache.overallMshrMissRate::cpu.data     0.000008                       # mshr miss ratio for overall accesses (Ratio)
system.cpu.dcache.overallMshrMissRate::total     0.000008                       # mshr miss ratio for overall accesses (Ratio)
system.cpu.dcache.demandAvgMshrMissLatency::cpu.data 59224.489796                       # average overall mshr miss latency ((Tick/Count))
system.cpu.dcache.demandAvgMshrMissLatency::total 59224.489796                       # average overall mshr miss latency ((Tick/Count))
system.cpu.dcache.overallAvgMshrMissLatency::cpu.data 59224.489796                       # average overall mshr miss latency ((Tick/Count))
system.cpu.dcache.overallAvgMshrMissLatency::total 59224.489796                       # average overall mshr miss latency ((Tick/Count))
system.cpu.dcache.replacements                    336                       # number of replacements (Count)
system.cpu.dcache.ReadReq.hits::cpu.data     86273123                       # number of ReadReq hits (Count)
system.cpu.dcache.ReadReq.hits::total        86273123                       # number of ReadReq hits (Count)
system.cpu.dcache.ReadReq.misses::cpu.data          924                       # number of ReadReq misses (Count)
system.cpu.dcache.ReadReq.misses::total           924                       # number of ReadReq misses (Count)
system.cpu.dcache.ReadReq.missLatency::cpu.data     53871000                       # number of ReadReq miss ticks (Tick)
system.cpu.dcache.ReadReq.missLatency::total     53871000                       # number of ReadReq miss ticks (Tick)
system.cpu.dcache.ReadReq.accesses::cpu.data     86274047                       # number of ReadReq accesses(hits+misses) (Count)
system.cpu.dcache.ReadReq.accesses::total     86274047                       # number of ReadReq accesses(hits+misses) (Count)
system.cpu.dcache.ReadReq.missRate::cpu.data     0.000011                       # miss rate for ReadReq accesses (Ratio)
system.cpu.dcache.ReadReq.missRate::total     0.000011                       # miss rate for ReadReq accesses (Ratio)
system.cpu.dcache.ReadReq.avgMissLatency::cpu.data 58301.948052                       # average ReadReq miss latency ((Tick/Count))
system.cpu.dcache.ReadReq.avgMissLatency::total 58301.948052                       # average ReadReq miss latency ((Tick/Count))
system.cpu.dcache.ReadReq.mshrHits::cpu.data          582                       # number of ReadReq MSHR hits (Count)
system.cpu.dcache.ReadReq.mshrHits::total          582                       # number of ReadReq MSHR hits (Count)
system.cpu.dcache.ReadReq.mshrMisses::cpu.data          342                       # number of ReadReq MSHR misses (Count)
system.cpu.dcache.ReadReq.mshrMisses::total          342                       # number of ReadReq MSHR misses (Count)
system.cpu.dcache.ReadReq.mshrMissLatency::cpu.data     24374500                       # number of ReadReq MSHR miss ticks (Tick)
system.cpu.dcache.ReadReq.mshrMissLatency::total     24374500                       # number of ReadReq MSHR miss ticks (Tick)
system.cpu.dcache.ReadReq.mshrMissRate::cpu.data     0.000004                       # mshr miss rate for ReadReq accesses (Ratio)
system.cpu.dcache.ReadReq.mshrMissRate::total     0.000004                       # mshr miss rate for ReadReq accesses (Ratio)
system.cpu.dcache.ReadReq.avgMshrMissLatency::cpu.data 71270.467836                       # average ReadReq mshr miss latency ((Tick/Count))
system.cpu.dcache.ReadReq.avgMshrMissLatency::total 71270.467836                       # average ReadReq mshr miss latency ((Tick/Count))
system.cpu.dcache.WriteReq.hits::cpu.data     19325881                       # number of WriteReq hits (Count)
system.cpu.dcache.WriteReq.hits::total       19325881                       # number of WriteReq hits (Count)
system.cpu.dcache.WriteReq.misses::cpu.data          543                       # number of WriteReq misses (Count)
system.cpu.dcache.WriteReq.misses::total          543                       # number of WriteReq misses (Count)
system.cpu.dcache.WriteReq.missLatency::cpu.data     28538000                       # number of WriteReq miss ticks (Tick)
system.cpu.dcache.WriteReq.missLatency::total     28538000                       # number of WriteReq miss ticks (Tick)
system.cpu.dcache.WriteReq.accesses::cpu.data     19326424                       # number of WriteReq accesses(hits+misses) (Count)
system.cpu.dcache.WriteReq.accesses::total     19326424                       # number of WriteReq accesses(hits+misses) (Count)
system.cpu.dcache.WriteReq.missRate::cpu.data     0.000028                       # miss rate for WriteReq accesses (Ratio)
system.cpu.dcache.WriteReq.missRate::total     0.000028                       # miss rate for WriteReq accesses (Ratio)
system.cpu.dcache.WriteReq.avgMissLatency::cpu.data 52556.169429                       # average WriteReq miss latency ((Tick/Count))
system.cpu.dcache.WriteReq.avgMissLatency::total 52556.169429                       # average WriteReq miss latency ((Tick/Count))
system.cpu.dcache.WriteReq.mshrHits::cpu.data            3                       # number of WriteReq MSHR hits (Count)
system.cpu.dcache.WriteReq.mshrHits::total            3                       # number of WriteReq MSHR hits (Count)
system.cpu.dcache.WriteReq.mshrMisses::cpu.data          540                       # number of WriteReq MSHR misses (Count)
system.cpu.dcache.WriteReq.mshrMisses::total          540                       # number of WriteReq MSHR misses (Count)
system.cpu.dcache.WriteReq.mshrMissLatency::cpu.data     27861500                       # number of WriteReq MSHR miss ticks (Tick)
system.cpu.dcache.WriteReq.mshrMissLatency::total     27861500                       # number of WriteReq MSHR miss ticks (Tick)
system.cpu.dcache.WriteReq.mshrMissRate::cpu.data     0.000028                       # mshr miss rate for WriteReq accesses (Ratio)
system.cpu.dcache.WriteReq.mshrMissRate::total     0.000028                       # mshr miss rate for WriteReq accesses (Ratio)
system.cpu.dcache.WriteReq.avgMshrMissLatency::cpu.data 51595.370370                       # average WriteReq mshr miss latency ((Tick/Count))
system.cpu.dcache.WriteReq.avgMshrMissLatency::total 51595.370370                       # average WriteReq mshr miss latency ((Tick/Count))
system.cpu.dcache.power_state.pwrStateResidencyTicks::UNDEFINED  87977376000                       # Cumulative time (in ticks) in various power states (Tick)
system.cpu.dcache.tags.tagsInUse           532.484910                       # Average ticks per tags in use ((Tick/Count))
system.cpu.dcache.tags.totalRefs            105599886                       # Total number of references to valid blocks. (Count)
system.cpu.dcache.tags.sampledRefs                882                       # Sample count of references to valid blocks. (Count)
system.cpu.dcache.tags.avgRefs           119727.761905                       # Average number of references to valid blocks. ((Count/Count))
system.cpu.dcache.tags.warmupTick              145000                       # The tick when the warmup percentage was hit. (Tick)
system.cpu.dcache.tags.occupancies::cpu.data   532.484910                       # Average occupied blocks per tick, per requestor ((Count/Tick))
system.cpu.dcache.tags.avgOccs::cpu.data     0.520005                       # Average percentage of cache occupancy ((Ratio/Tick))
system.cpu.dcache.tags.avgOccs::total        0.520005                       # Average percentage of cache occupancy ((Ratio/Tick))
system.cpu.dcache.tags.occupanciesTaskId::1024          546                       # Occupied blocks per task id (Count)
system.cpu.dcache.tags.ageTaskId_1024::0           18                       # Occupied blocks per task id, per block age (Count)
system.cpu.dcache.tags.ageTaskId_1024::4          528                       # Occupied blocks per task id, per block age (Count)
system.cpu.dcache.tags.ratioOccsTaskId::1024     0.533203                       # Ratio of occupied blocks and all blocks, per task id (Ratio)
system.cpu.dcache.tags.tagAccesses          211201824                       # Number of tag accesses (Count)
system.cpu.dcache.tags.dataAccesses         211201824                       # Number of data accesses (Count)
system.cpu.dcache.tags.power_state.pwrStateResidencyTicks::UNDEFINED  87977376000                       # Cumulative time (in ticks) in various power states (Tick)
system.cpu.decode.idleCycles                 20448720                       # Number of cycles decode is idle (Cycle)
system.cpu.decode.blockedCycles              75464038                       # Number of cycles decode is blocked (Cycle)
system.cpu.decode.runCycles                  60812099                       # Number of cycles decode is running (Cycle)
system.cpu.decode.unblockCycles              15686094                       # Number of cycles decode is unblocking (Cycle)
system.cpu.decode.squashCycles                3479619                       # Number of cycles decode is squashing (Cycle)
system.cpu.decode.branchResolved             23727025                       # Number of times decode resolved a branch (Count)
system.cpu.decode.branchMispred                   391                       # Number of times decode detected a branch misprediction (Count)
system.cpu.decode.decodedInsts              561944465                       # Number of instructions handled by decode (Count)
system.cpu.decode.squashedInsts                  1927                       # Number of squashed instructions handled by decode (Count)
system.cpu.dtb_walker_cache.blockedCycles::no_mshrs            0                       # number of cycles access was blocked (Cycle)
system.cpu.dtb_walker_cache.blockedCycles::no_targets            0                       # number of cycles access was blocked (Cycle)
system.cpu.dtb_walker_cache.blockedCauses::no_mshrs            0                       # number of times access was blocked (Count)
system.cpu.dtb_walker_cache.blockedCauses::no_targets            0                       # number of times access was blocked (Count)
system.cpu.dtb_walker_cache.avgBlocked::no_mshrs          nan                       # average number of cycles each access was blocked ((Cycle/Count))
system.cpu.dtb_walker_cache.avgBlocked::no_targets          nan                       # average number of cycles each access was blocked ((Cycle/Count))
system.cpu.dtb_walker_cache.replacements            0                       # number of replacements (Count)
system.cpu.dtb_walker_cache.power_state.pwrStateResidencyTicks::UNDEFINED  87977376000                       # Cumulative time (in ticks) in various power states (Tick)
system.cpu.dtb_walker_cache.tags.tagsInUse            0                       # Average ticks per tags in use ((Tick/Count))
system.cpu.dtb_walker_cache.tags.totalRefs            0                       # Total number of references to valid blocks. (Count)
system.cpu.dtb_walker_cache.tags.sampledRefs            0                       # Sample count of references to valid blocks. (Count)
system.cpu.dtb_walker_cache.tags.avgRefs          nan                       # Average number of references to valid blocks. ((Count/Count))
system.cpu.dtb_walker_cache.tags.warmupTick            0                       # The tick when the warmup percentage was hit. (Tick)
system.cpu.dtb_walker_cache.tags.tagAccesses            0                       # Number of tag accesses (Count)
system.cpu.dtb_walker_cache.tags.dataAccesses            0                       # Number of data accesses (Count)
system.cpu.dtb_walker_cache.tags.power_state.pwrStateResidencyTicks::UNDEFINED  87977376000                       # Cumulative time (in ticks) in various power states (Tick)
system.cpu.fetch.icacheStallCycles           39193390                       # Number of cycles fetch is stalled on an Icache miss (Cycle)
system.cpu.fetch.insts                      437538056                       # Number of instructions fetch has processed (Count)
system.cpu.fetch.branches                    45356375                       # Number of branches that fetch encountered (Count)
system.cpu.fetch.predictedBranches           29979753                       # Number of branches that fetch has predicted taken (Count)
system.cpu.fetch.cycles                     133216091                       # Number of cycles fetch has run and was not squashing or blocked (Cycle)
system.cpu.fetch.squashCycles                 6960000                       # Number of cycles fetch has spent squashing (Cycle)
system.cpu.fetch.miscStallCycles                  214                       # Number of cycles fetch has spent waiting on interrupts, or bad addresses, or out of MSHRs (Cycle)
system.cpu.fetch.pendingTrapStallCycles           816                       # Number of stall cycles due to pending traps (Cycle)
system.cpu.fetch.icacheWaitRetryStallCycles           59                       # Number of stall cycles due to full MSHR (Cycle)
system.cpu.fetch.cacheLines                  37519241                       # Number of cache lines fetched (Count)
system.cpu.fetch.icacheSquashes                740526                       # Number of outstanding Icache misses that were squashed (Count)
system.cpu.fetch.nisnDist::samples          175890570                       # Number of instructions fetched each cycle (Total) (Count)
system.cpu.fetch.nisnDist::mean              3.736491                       # Number of instructions fetched each cycle (Total) (Count)
system.cpu.fetch.nisnDist::stdev             4.699849                       # Number of instructions fetched each cycle (Total) (Count)
system.cpu.fetch.nisnDist::underflows               0      0.00%      0.00% # Number of instructions fetched each cycle (Total) (Count)
system.cpu.fetch.nisnDist::0                 90184953     51.27%     51.27% # Number of instructions fetched each cycle (Total) (Count)
system.cpu.fetch.nisnDist::1                  2958018      1.68%     52.96% # Number of instructions fetched each cycle (Total) (Count)
system.cpu.fetch.nisnDist::2                  5704521      3.24%     56.20% # Number of instructions fetched each cycle (Total) (Count)
system.cpu.fetch.nisnDist::3                 14493707      8.24%     64.44% # Number of instructions fetched each cycle (Total) (Count)
system.cpu.fetch.nisnDist::4                  3533489      2.01%     66.45% # Number of instructions fetched each cycle (Total) (Count)
system.cpu.fetch.nisnDist::5                  2453966      1.40%     67.84% # Number of instructions fetched each cycle (Total) (Count)
system.cpu.fetch.nisnDist::6                  4810341      2.73%     70.58% # Number of instructions fetched each cycle (Total) (Count)
system.cpu.fetch.nisnDist::7                  1780189      1.01%     71.59% # Number of instructions fetched each cycle (Total) (Count)
system.cpu.fetch.nisnDist::8                 13615547      7.74%     79.33% # Number of instructions fetched each cycle (Total) (Count)
system.cpu.fetch.nisnDist::9                  1165971      0.66%     79.99% # Number of instructions fetched each cycle (Total) (Count)
system.cpu.fetch.nisnDist::10                 2250966      1.28%     81.27% # Number of instructions fetched each cycle (Total) (Count)
system.cpu.fetch.nisnDist::11                 5556444      3.16%     84.43% # Number of instructions fetched each cycle (Total) (Count)
system.cpu.fetch.nisnDist::12                27382458     15.57%    100.00% # Number of instructions fetched each cycle (Total) (Count)
system.cpu.fetch.nisnDist::overflows                0      0.00%    100.00% # Number of instructions fetched each cycle (Total) (Count)
system.cpu.fetch.nisnDist::min_value                0                       # Number of instructions fetched each cycle (Total) (Count)
system.cpu.fetch.nisnDist::max_value               12                       # Number of instructions fetched each cycle (Total) (Count)
system.cpu.fetch.nisnDist::total            175890570                       # Number of instructions fetched each cycle (Total) (Count)
system.cpu.fetch.branchRate                  0.257773                       # Number of branch fetches per cycle (Ratio)
system.cpu.fetch.rate                        2.486651                       # Number of inst fetches per cycle ((Count/Cycle))
system.cpu.icache.demandHits::cpu.inst       37515886                       # number of demand (read+write) hits (Count)
system.cpu.icache.demandHits::total          37515886                       # number of demand (read+write) hits (Count)
system.cpu.icache.overallHits::cpu.inst      37515886                       # number of overall hits (Count)
system.cpu.icache.overallHits::total         37515886                       # number of overall hits (Count)
system.cpu.icache.demandMisses::cpu.inst         3354                       # number of demand (read+write) misses (Count)
system.cpu.icache.demandMisses::total            3354                       # number of demand (read+write) misses (Count)
system.cpu.icache.overallMisses::cpu.inst         3354                       # number of overall misses (Count)
system.cpu.icache.overallMisses::total           3354                       # number of overall misses (Count)
system.cpu.icache.demandMissLatency::cpu.inst    111185999                       # number of demand (read+write) miss ticks (Tick)
system.cpu.icache.demandMissLatency::total    111185999                       # number of demand (read+write) miss ticks (Tick)
system.cpu.icache.overallMissLatency::cpu.inst    111185999                       # number of overall miss ticks (Tick)
system.cpu.icache.overallMissLatency::total    111185999                       # number of overall miss ticks (Tick)
system.cpu.icache.demandAccesses::cpu.inst     37519240                       # number of demand (read+write) accesses (Count)
system.cpu.icache.demandAccesses::total      37519240                       # number of demand (read+write) accesses (Count)
system.cpu.icache.overallAccesses::cpu.inst     37519240                       # number of overall (read+write) accesses (Count)
system.cpu.icache.overallAccesses::total     37519240                       # number of overall (read+write) accesses (Count)
system.cpu.icache.demandMissRate::cpu.inst     0.000089                       # miss rate for demand accesses (Ratio)
system.cpu.icache.demandMissRate::total      0.000089                       # miss rate for demand accesses (Ratio)
system.cpu.icache.overallMissRate::cpu.inst     0.000089                       # miss rate for overall accesses (Ratio)
system.cpu.icache.overallMissRate::total     0.000089                       # miss rate for overall accesses (Ratio)
system.cpu.icache.demandAvgMissLatency::cpu.inst 33150.268038                       # average overall miss latency in ticks ((Tick/Count))
system.cpu.icache.demandAvgMissLatency::total 33150.268038                       # average overall miss latency in ticks ((Tick/Count))
system.cpu.icache.overallAvgMissLatency::cpu.inst 33150.268038                       # average overall miss latency ((Tick/Count))
system.cpu.icache.overallAvgMissLatency::total 33150.268038                       # average overall miss latency ((Tick/Count))
system.cpu.icache.blockedCycles::no_mshrs         1298                       # number of cycles access was blocked (Cycle)
system.cpu.icache.blockedCycles::no_targets            0                       # number of cycles access was blocked (Cycle)
system.cpu.icache.blockedCauses::no_mshrs            8                       # number of times access was blocked (Count)
system.cpu.icache.blockedCauses::no_targets            0                       # number of times access was blocked (Count)
system.cpu.icache.avgBlocked::no_mshrs     162.250000                       # average number of cycles each access was blocked ((Cycle/Count))
system.cpu.icache.avgBlocked::no_targets          nan                       # average number of cycles each access was blocked ((Cycle/Count))
system.cpu.icache.writebacks::writebacks         2498                       # number of writebacks (Count)
system.cpu.icache.writebacks::total              2498                       # number of writebacks (Count)
system.cpu.icache.demandMshrHits::cpu.inst          600                       # number of demand (read+write) MSHR hits (Count)
system.cpu.icache.demandMshrHits::total           600                       # number of demand (read+write) MSHR hits (Count)
system.cpu.icache.overallMshrHits::cpu.inst          600                       # number of overall MSHR hits (Count)
system.cpu.icache.overallMshrHits::total          600                       # number of overall MSHR hits (Count)
system.cpu.icache.demandMshrMisses::cpu.inst         2754                       # number of demand (read+write) MSHR misses (Count)
system.cpu.icache.demandMshrMisses::total         2754                       # number of demand (read+write) MSHR misses (Count)
system.cpu.icache.overallMshrMisses::cpu.inst         2754                       # number of overall MSHR misses (Count)
system.cpu.icache.overallMshrMisses::total         2754                       # number of overall MSHR misses (Count)
system.cpu.icache.demandMshrMissLatency::cpu.inst     93011500                       # number of demand (read+write) MSHR miss ticks (Tick)
system.cpu.icache.demandMshrMissLatency::total     93011500                       # number of demand (read+write) MSHR miss ticks (Tick)
system.cpu.icache.overallMshrMissLatency::cpu.inst     93011500                       # number of overall MSHR miss ticks (Tick)
system.cpu.icache.overallMshrMissLatency::total     93011500                       # number of overall MSHR miss ticks (Tick)
system.cpu.icache.demandMshrMissRate::cpu.inst     0.000073                       # mshr miss ratio for demand accesses (Ratio)
system.cpu.icache.demandMshrMissRate::total     0.000073                       # mshr miss ratio for demand accesses (Ratio)
system.cpu.icache.overallMshrMissRate::cpu.inst     0.000073                       # mshr miss ratio for overall accesses (Ratio)
system.cpu.icache.overallMshrMissRate::total     0.000073                       # mshr miss ratio for overall accesses (Ratio)
system.cpu.icache.demandAvgMshrMissLatency::cpu.inst 33773.238925                       # average overall mshr miss latency ((Tick/Count))
system.cpu.icache.demandAvgMshrMissLatency::total 33773.238925                       # average overall mshr miss latency ((Tick/Count))
system.cpu.icache.overallAvgMshrMissLatency::cpu.inst 33773.238925                       # average overall mshr miss latency ((Tick/Count))
system.cpu.icache.overallAvgMshrMissLatency::total 33773.238925                       # average overall mshr miss latency ((Tick/Count))
system.cpu.icache.replacements                   2498                       # number of replacements (Count)
system.cpu.icache.ReadReq.hits::cpu.inst     37515886                       # number of ReadReq hits (Count)
system.cpu.icache.ReadReq.hits::total        37515886                       # number of ReadReq hits (Count)
system.cpu.icache.ReadReq.misses::cpu.inst         3354                       # number of ReadReq misses (Count)
system.cpu.icache.ReadReq.misses::total          3354                       # number of ReadReq misses (Count)
system.cpu.icache.ReadReq.missLatency::cpu.inst    111185999                       # number of ReadReq miss ticks (Tick)
system.cpu.icache.ReadReq.missLatency::total    111185999                       # number of ReadReq miss ticks (Tick)
system.cpu.icache.ReadReq.accesses::cpu.inst     37519240                       # number of ReadReq accesses(hits+misses) (Count)
system.cpu.icache.ReadReq.accesses::total     37519240                       # number of ReadReq accesses(hits+misses) (Count)
system.cpu.icache.ReadReq.missRate::cpu.inst     0.000089                       # miss rate for ReadReq accesses (Ratio)
system.cpu.icache.ReadReq.missRate::total     0.000089                       # miss rate for ReadReq accesses (Ratio)
system.cpu.icache.ReadReq.avgMissLatency::cpu.inst 33150.268038                       # average ReadReq miss latency ((Tick/Count))
system.cpu.icache.ReadReq.avgMissLatency::total 33150.268038                       # average ReadReq miss latency ((Tick/Count))
system.cpu.icache.ReadReq.mshrHits::cpu.inst          600                       # number of ReadReq MSHR hits (Count)
system.cpu.icache.ReadReq.mshrHits::total          600                       # number of ReadReq MSHR hits (Count)
system.cpu.icache.ReadReq.mshrMisses::cpu.inst         2754                       # number of ReadReq MSHR misses (Count)
system.cpu.icache.ReadReq.mshrMisses::total         2754                       # number of ReadReq MSHR misses (Count)
system.cpu.icache.ReadReq.mshrMissLatency::cpu.inst     93011500                       # number of ReadReq MSHR miss ticks (Tick)
system.cpu.icache.ReadReq.mshrMissLatency::total     93011500                       # number of ReadReq MSHR miss ticks (Tick)
system.cpu.icache.ReadReq.mshrMissRate::cpu.inst     0.000073                       # mshr miss rate for ReadReq accesses (Ratio)
system.cpu.icache.ReadReq.mshrMissRate::total     0.000073                       # mshr miss rate for ReadReq accesses (Ratio)
system.cpu.icache.ReadReq.avgMshrMissLatency::cpu.inst 33773.238925                       # average ReadReq mshr miss latency ((Tick/Count))
system.cpu.icache.ReadReq.avgMshrMissLatency::total 33773.238925                       # average ReadReq mshr miss latency ((Tick/Count))
system.cpu.icache.power_state.pwrStateResidencyTicks::UNDEFINED  87977376000                       # Cumulative time (in ticks) in various power states (Tick)
system.cpu.icache.tags.tagsInUse           252.911983                       # Average ticks per tags in use ((Tick/Count))
system.cpu.icache.tags.totalRefs             37518639                       # Total number of references to valid blocks. (Count)
system.cpu.icache.tags.sampledRefs               2753                       # Sample count of references to valid blocks. (Count)
system.cpu.icache.tags.avgRefs           13628.274246                       # Average number of references to valid blocks. ((Count/Count))
system.cpu.icache.tags.warmupTick               77000                       # The tick when the warmup percentage was hit. (Tick)
system.cpu.icache.tags.occupancies::cpu.inst   252.911983                       # Average occupied blocks per tick, per requestor ((Count/Tick))
system.cpu.icache.tags.avgOccs::cpu.inst     0.987937                       # Average percentage of cache occupancy ((Ratio/Tick))
system.cpu.icache.tags.avgOccs::total        0.987937                       # Average percentage of cache occupancy ((Ratio/Tick))
system.cpu.icache.tags.occupanciesTaskId::1024          255                       # Occupied blocks per task id (Count)
system.cpu.icache.tags.ageTaskId_1024::0           68                       # Occupied blocks per task id, per block age (Count)
system.cpu.icache.tags.ageTaskId_1024::2            1                       # Occupied blocks per task id, per block age (Count)
system.cpu.icache.tags.ageTaskId_1024::4          186                       # Occupied blocks per task id, per block age (Count)
system.cpu.icache.tags.ratioOccsTaskId::1024     0.996094                       # Ratio of occupied blocks and all blocks, per task id (Ratio)
system.cpu.icache.tags.tagAccesses           75041233                       # Number of tag accesses (Count)
system.cpu.icache.tags.dataAccesses          75041233                       # Number of data accesses (Count)
system.cpu.icache.tags.power_state.pwrStateResidencyTicks::UNDEFINED  87977376000                       # Cumulative time (in ticks) in various power states (Tick)
system.cpu.iew.idleCycles                           0                       # Number of cycles IEW is idle (Cycle)
system.cpu.iew.squashCycles                   3479619                       # Number of cycles IEW is squashing (Cycle)
system.cpu.iew.blockCycles                   30496462                       # Number of cycles IEW is blocking (Cycle)
system.cpu.iew.unblockCycles                    27899                       # Number of cycles IEW is unblocking (Cycle)
system.cpu.iew.dispatchedInsts              520382116                       # Number of instructions dispatched to IQ (Count)
system.cpu.iew.dispSquashedInsts                  532                       # Number of squashed instructions skipped by dispatch (Count)
system.cpu.iew.dispLoadInsts                167300517                       # Number of dispatched load instructions (Count)
system.cpu.iew.dispStoreInsts                38852009                       # Number of dispatched store instructions (Count)
system.cpu.iew.dispNonSpecInsts                     3                       # Number of dispatched non-speculative instructions (Count)
system.cpu.iew.iqFullEvents                       100                       # Number of times the IQ has become full, causing a stall (Count)
system.cpu.iew.lsqFullEvents                    24922                       # Number of times the LSQ has become full, causing a stall (Count)
system.cpu.iew.memOrderViolationEvents           9899                       # Number of memory order violations (Count)
system.cpu.iew.predictedTakenIncorrect        2159787                       # Number of branches that were predicted taken incorrectly (Count)
system.cpu.iew.predictedNotTakenIncorrect      1830565                       # Number of branches that were predicted not taken incorrectly (Count)
system.cpu.iew.branchMispredicts              3990352                       # Number of branch mispredicts detected at execute (Count)
system.cpu.iew.instsToCommit                383347781                       # Cumulative count of insts sent to commit (Count)
system.cpu.iew.writebackCount               380507311                       # Cumulative count of insts written-back (Count)
system.cpu.iew.producerInst                 319773251                       # Number of instructions producing a value (Count)
system.cpu.iew.consumerInst                 393663076                       # Number of instructions consuming a value (Count)
system.cpu.iew.wbRate                        2.162529                       # Insts written-back per cycle ((Count/Cycle))
system.cpu.iew.wbFanout                      0.812302                       # Average fanout of values written-back ((Count/Count))
system.cpu.interrupts.clk_domain.clock           8000                       # Clock period in ticks (Tick)
system.cpu.itb_walker_cache.blockedCycles::no_mshrs            0                       # number of cycles access was blocked (Cycle)
system.cpu.itb_walker_cache.blockedCycles::no_targets            0                       # number of cycles access was blocked (Cycle)
system.cpu.itb_walker_cache.blockedCauses::no_mshrs            0                       # number of times access was blocked (Count)
system.cpu.itb_walker_cache.blockedCauses::no_targets            0                       # number of times access was blocked (Count)
system.cpu.itb_walker_cache.avgBlocked::no_mshrs          nan                       # average number of cycles each access was blocked ((Cycle/Count))
system.cpu.itb_walker_cache.avgBlocked::no_targets          nan                       # average number of cycles each access was blocked ((Cycle/Count))
system.cpu.itb_walker_cache.replacements            0                       # number of replacements (Count)
system.cpu.itb_walker_cache.power_state.pwrStateResidencyTicks::UNDEFINED  87977376000                       # Cumulative time (in ticks) in various power states (Tick)
system.cpu.itb_walker_cache.tags.tagsInUse            0                       # Average ticks per tags in use ((Tick/Count))
system.cpu.itb_walker_cache.tags.totalRefs            0                       # Total number of references to valid blocks. (Count)
system.cpu.itb_walker_cache.tags.sampledRefs            0                       # Sample count of references to valid blocks. (Count)
system.cpu.itb_walker_cache.tags.avgRefs          nan                       # Average number of references to valid blocks. ((Count/Count))
system.cpu.itb_walker_cache.tags.warmupTick            0                       # The tick when the warmup percentage was hit. (Tick)
system.cpu.itb_walker_cache.tags.tagAccesses            0                       # Number of tag accesses (Count)
system.cpu.itb_walker_cache.tags.dataAccesses            0                       # Number of data accesses (Count)
system.cpu.itb_walker_cache.tags.power_state.pwrStateResidencyTicks::UNDEFINED  87977376000                       # Cumulative time (in ticks) in various power states (Tick)
system.cpu.lsq0.forwLoads                    35808649                       # Number of loads that had data forwarded from stores (Count)
system.cpu.lsq0.squashedLoads                87574018                       # Number of loads squashed (Count)
system.cpu.lsq0.ignoredResponses                 1033                       # Number of memory responses ignored because the instruction is squashed (Count)
system.cpu.lsq0.memOrderViolation                9899                       # Number of memory ordering violations (Count)
system.cpu.lsq0.squashedStores               19525586                       # Number of stores squashed (Count)
system.cpu.lsq0.rescheduledLoads                    0                       # Number of loads that were rescheduled (Count)
system.cpu.lsq0.blockedByCache                     10                       # Number of times an access to memory failed due to the cache being blocked (Count)
system.cpu.lsq0.loadToUse::samples           79726499                       # Distribution of cycle latency between the first time a load is issued and its completion (Unspecified)
system.cpu.lsq0.loadToUse::mean              2.946798                       # Distribution of cycle latency between the first time a load is issued and its completion (Unspecified)
system.cpu.lsq0.loadToUse::stdev             0.853015                       # Distribution of cycle latency between the first time a load is issued and its completion (Unspecified)
system.cpu.lsq0.loadToUse::0-9               79725725    100.00%    100.00% # Distribution of cycle latency between the first time a load is issued and its completion (Unspecified)
system.cpu.lsq0.loadToUse::10-19                    6      0.00%    100.00% # Distribution of cycle latency between the first time a load is issued and its completion (Unspecified)
system.cpu.lsq0.loadToUse::20-29                    3      0.00%    100.00% # Distribution of cycle latency between the first time a load is issued and its completion (Unspecified)
system.cpu.lsq0.loadToUse::40-49                  101      0.00%    100.00% # Distribution of cycle latency between the first time a load is issued and its completion (Unspecified)
[...]
system.mem_ctrls.dram.bwWrite::total            77111                       # Write bandwidth from this memory ((Byte/Second))
system.mem_ctrls.dram.bwTotal::writebacks        77111                       # Total bandwidth to/from this memory ((Byte/Second))
system.mem_ctrls.dram.bwTotal::cpu.inst       2002697                       # Total bandwidth to/from this memory ((Byte/Second))
system.mem_ctrls.dram.bwTotal::cpu.data        641619                       # Total bandwidth to/from this memory ((Byte/Second))
system.mem_ctrls.dram.bwTotal::total          2721427                       # Total bandwidth to/from this memory ((Byte/Second))
system.mem_ctrls.dram.readBursts                 1517                       # Number of DRAM read bursts (Count)
system.mem_ctrls.dram.writeBursts                 500                       # Number of DRAM write bursts (Count)
system.mem_ctrls.dram.perBankRdBursts::0          233                       # Per bank write bursts (Count)
system.mem_ctrls.dram.perBankRdBursts::1          103                       # Per bank write bursts (Count)
system.mem_ctrls.dram.perBankRdBursts::2           57                       # Per bank write bursts (Count)
system.mem_ctrls.dram.perBankRdBursts::3           38                       # Per bank write bursts (Count)
system.mem_ctrls.dram.perBankRdBursts::4          129                       # Per bank write bursts (Count)
system.mem_ctrls.dram.perBankRdBursts::5            5                       # Per bank write bursts (Count)
system.mem_ctrls.dram.perBankRdBursts::6           60                       # Per bank write bursts (Count)
system.mem_ctrls.dram.perBankRdBursts::7          154                       # Per bank write bursts (Count)
system.mem_ctrls.dram.perBankRdBursts::8          168                       # Per bank write bursts (Count)
system.mem_ctrls.dram.perBankRdBursts::9           37                       # Per bank write bursts (Count)
system.mem_ctrls.dram.perBankRdBursts::10          146                       # Per bank write bursts (Count)
system.mem_ctrls.dram.perBankRdBursts::11           41                       # Per bank write bursts (Count)
system.mem_ctrls.dram.perBankRdBursts::12           25                       # Per bank write bursts (Count)
system.mem_ctrls.dram.perBankRdBursts::13           71                       # Per bank write bursts (Count)
system.mem_ctrls.dram.perBankRdBursts::14           75                       # Per bank write bursts (Count)
system.mem_ctrls.dram.perBankRdBursts::15          175                       # Per bank write bursts (Count)
system.mem_ctrls.dram.perBankWrBursts::0           51                       # Per bank write bursts (Count)
system.mem_ctrls.dram.perBankWrBursts::1           92                       # Per bank write bursts (Count)
system.mem_ctrls.dram.perBankWrBursts::2           44                       # Per bank write bursts (Count)
system.mem_ctrls.dram.perBankWrBursts::3           25                       # Per bank write bursts (Count)
system.mem_ctrls.dram.perBankWrBursts::4           29                       # Per bank write bursts (Count)
system.mem_ctrls.dram.perBankWrBursts::5            0                       # Per bank write bursts (Count)
system.mem_ctrls.dram.perBankWrBursts::6            0                       # Per bank write bursts (Count)
system.mem_ctrls.dram.perBankWrBursts::7           20                       # Per bank write bursts (Count)
system.mem_ctrls.dram.perBankWrBursts::8           21                       # Per bank write bursts (Count)
system.mem_ctrls.dram.perBankWrBursts::9           22                       # Per bank write bursts (Count)
system.mem_ctrls.dram.perBankWrBursts::10           95                       # Per bank write bursts (Count)
system.mem_ctrls.dram.perBankWrBursts::11           27                       # Per bank write bursts (Count)
system.mem_ctrls.dram.perBankWrBursts::12            3                       # Per bank write bursts (Count)
system.mem_ctrls.dram.perBankWrBursts::13           20                       # Per bank write bursts (Count)
system.mem_ctrls.dram.perBankWrBursts::14           31                       # Per bank write bursts (Count)
system.mem_ctrls.dram.perBankWrBursts::15           20                       # Per bank write bursts (Count)
system.mem_ctrls.dram.totQLat                22029750                       # Total ticks spent queuing (Tick)
system.mem_ctrls.dram.totBusLat               7585000                       # Total ticks spent in databus transfers (Tick)
system.mem_ctrls.dram.totMemAccLat           50473500                       # Total ticks spent from burst creation until serviced by the DRAM (Tick)
system.mem_ctrls.dram.avgQLat                14521.92                       # Average queueing delay per DRAM burst ((Tick/Count))
system.mem_ctrls.dram.avgBusLat               5000.00                       # Average bus latency per DRAM burst ((Tick/Count))
system.mem_ctrls.dram.avgMemAccLat           33271.92                       # Average memory access latency per DRAM burst ((Tick/Count))
system.mem_ctrls.dram.readRowHits                1040                       # Number of row buffer hits during reads (Count)
system.mem_ctrls.dram.writeRowHits                380                       # Number of row buffer hits during writes (Count)
system.mem_ctrls.dram.readRowHitRate            68.56                       # Row buffer hit rate for reads (Ratio)
system.mem_ctrls.dram.writeRowHitRate           76.00                       # Row buffer hit rate for writes (Ratio)
system.mem_ctrls.dram.bytesPerActivate::samples          594                       # Bytes accessed per row activation (Byte)
system.mem_ctrls.dram.bytesPerActivate::mean   216.781145                       # Bytes accessed per row activation (Byte)
system.mem_ctrls.dram.bytesPerActivate::gmean   130.530681                       # Bytes accessed per row activation (Byte)
system.mem_ctrls.dram.bytesPerActivate::stdev   266.327182                       # Bytes accessed per row activation (Byte)
system.mem_ctrls.dram.bytesPerActivate::0-127          322     54.21%     54.21% # Bytes accessed per row activation (Byte)
system.mem_ctrls.dram.bytesPerActivate::128-255          109     18.35%     72.56% # Bytes accessed per row activation (Byte)
system.mem_ctrls.dram.bytesPerActivate::256-383           60     10.10%     82.66% # Bytes accessed per row activation (Byte)
system.mem_ctrls.dram.bytesPerActivate::384-511           30      5.05%     87.71% # Bytes accessed per row activation (Byte)
system.mem_ctrls.dram.bytesPerActivate::512-639           12      2.02%     89.73% # Bytes accessed per row activation (Byte)
system.mem_ctrls.dram.bytesPerActivate::640-767            9      1.52%     91.25% # Bytes accessed per row activation (Byte)
system.mem_ctrls.dram.bytesPerActivate::768-895            7      1.18%     92.42% # Bytes accessed per row activation (Byte)
system.mem_ctrls.dram.bytesPerActivate::896-1023           16      2.69%     95.12% # Bytes accessed per row activation (Byte)
system.mem_ctrls.dram.bytesPerActivate::1024-1151           29      4.88%    100.00% # Bytes accessed per row activation (Byte)
system.mem_ctrls.dram.bytesPerActivate::total          594                       # Bytes accessed per row activation (Byte)
system.mem_ctrls.dram.bytesRead                 97088                       # Total bytes read (Byte)
system.mem_ctrls.dram.bytesWritten              32000                       # Total bytes written (Byte)
system.mem_ctrls.dram.avgRdBW                1.103556                       # Average DRAM read bandwidth in MiBytes/s ((Byte/Second))
system.mem_ctrls.dram.avgWrBW                0.363730                       # Average DRAM write bandwidth in MiBytes/s ((Byte/Second))
system.mem_ctrls.dram.peakBW                 12800.00                       # Theoretical peak bandwidth in MiByte/s ((Byte/Second))
system.mem_ctrls.dram.busUtil                    0.01                       # Data bus utilization in percentage (Ratio)
system.mem_ctrls.dram.busUtilRead                0.01                       # Data bus utilization in percentage for reads (Ratio)
system.mem_ctrls.dram.busUtilWrite               0.00                       # Data bus utilization in percentage for writes (Ratio)
system.mem_ctrls.dram.pageHitRate               70.40                       # Row buffer hit rate, read and write combined (Ratio)
system.mem_ctrls.dram.power_state.pwrStateResidencyTicks::UNDEFINED  87977376000                       # Cumulative time (in ticks) in various power states (Tick)
system.mem_ctrls.dram.rank0.actEnergy         2577540                       # Energy for activate commands per rank (pJ) (Joule)
system.mem_ctrls.dram.rank0.preEnergy         1369995                       # Energy for precharge commands per rank (pJ) (Joule)
system.mem_ctrls.dram.rank0.readEnergy        5562060                       # Energy for read commands per rank (pJ) (Joule)
system.mem_ctrls.dram.rank0.writeEnergy       1362420                       # Energy for write commands per rank (pJ) (Joule)
system.mem_ctrls.dram.rank0.refreshEnergy 6944817360.000001                       # Energy for refresh commands per rank (pJ) (Joule)
system.mem_ctrls.dram.rank0.actBackEnergy   1515392880                       # Energy for active background per rank (pJ) (Joule)
system.mem_ctrls.dram.rank0.preBackEnergy  32507192160                       # Energy for precharge background per rank (pJ) (Joule)
system.mem_ctrls.dram.rank0.actPowerDownEnergy            0                       # Energy for active power-down per rank (pJ) (Joule)
system.mem_ctrls.dram.rank0.prePowerDownEnergy            0                       # Energy for precharge power-down per rank (pJ) (Joule)
system.mem_ctrls.dram.rank0.selfRefreshEnergy            0                       # Energy for self refresh per rank (pJ) (Joule)
system.mem_ctrls.dram.rank0.totalEnergy   40978274415                       # Total energy per rank (pJ) (Joule)
system.mem_ctrls.dram.rank0.averagePower   465.781958                       # Core power per rank (mW) (Watt)
system.mem_ctrls.dram.rank0.totalIdleTime            0                       # Total Idle time Per DRAM Rank (Tick)
system.mem_ctrls.dram.rank0.pwrStateTime::IDLE  84496987750                       # Time in different power states (Tick)
system.mem_ctrls.dram.rank0.pwrStateTime::REF   2937740000                       # Time in different power states (Tick)
system.mem_ctrls.dram.rank0.pwrStateTime::SREF            0                       # Time in different power states (Tick)
system.mem_ctrls.dram.rank0.pwrStateTime::PRE_PDN            0                       # Time in different power states (Tick)
system.mem_ctrls.dram.rank0.pwrStateTime::ACT    542648250                       # Time in different power states (Tick)
system.mem_ctrls.dram.rank0.pwrStateTime::ACT_PDN            0                       # Time in different power states (Tick)
system.mem_ctrls.dram.rank1.actEnergy         1685040                       # Energy for activate commands per rank (pJ) (Joule)
system.mem_ctrls.dram.rank1.preEnergy          884235                       # Energy for precharge commands per rank (pJ) (Joule)
system.mem_ctrls.dram.rank1.readEnergy        5269320                       # Energy for read commands per rank (pJ) (Joule)
system.mem_ctrls.dram.rank1.writeEnergy       1247580                       # Energy for write commands per rank (pJ) (Joule)
system.mem_ctrls.dram.rank1.refreshEnergy 6944817360.000001                       # Energy for refresh commands per rank (pJ) (Joule)
system.mem_ctrls.dram.rank1.actBackEnergy   1325206110                       # Energy for active background per rank (pJ) (Joule)
system.mem_ctrls.dram.rank1.preBackEnergy  32667349440                       # Energy for precharge background per rank (pJ) (Joule)
system.mem_ctrls.dram.rank1.actPowerDownEnergy            0                       # Energy for active power-down per rank (pJ) (Joule)
system.mem_ctrls.dram.rank1.prePowerDownEnergy            0                       # Energy for precharge power-down per rank (pJ) (Joule)
system.mem_ctrls.dram.rank1.selfRefreshEnergy            0                       # Energy for self refresh per rank (pJ) (Joule)
system.mem_ctrls.dram.rank1.totalEnergy   40946459085                       # Total energy per rank (pJ) (Joule)
system.mem_ctrls.dram.rank1.averagePower   465.420327                       # Core power per rank (mW) (Watt)
system.mem_ctrls.dram.rank1.totalIdleTime            0                       # Total Idle time Per DRAM Rank (Tick)
system.mem_ctrls.dram.rank1.pwrStateTime::IDLE  84915454500                       # Time in different power states (Tick)
system.mem_ctrls.dram.rank1.pwrStateTime::REF   2937740000                       # Time in different power states (Tick)
system.mem_ctrls.dram.rank1.pwrStateTime::SREF            0                       # Time in different power states (Tick)
system.mem_ctrls.dram.rank1.pwrStateTime::PRE_PDN            0                       # Time in different power states (Tick)
system.mem_ctrls.dram.rank1.pwrStateTime::ACT    124181500                       # Time in different power states (Tick)
system.mem_ctrls.dram.rank1.pwrStateTime::ACT_PDN            0                       # Time in different power states (Tick)
system.mem_ctrls.power_state.pwrStateResidencyTicks::UNDEFINED  87977376000                       # Cumulative time (in ticks) in various power states (Tick)
system.membus.transDist::ReadResp                3095                       # Transaction distribution (Count)
system.membus.transDist::WritebackDirty           106                       # Transaction distribution (Count)
system.membus.transDist::WritebackClean          2498                       # Transaction distribution (Count)
system.membus.transDist::CleanEvict               230                       # Transaction distribution (Count)
system.membus.transDist::ReadExReq                540                       # Transaction distribution (Count)
system.membus.transDist::ReadExResp               540                       # Transaction distribution (Count)
system.membus.transDist::ReadCleanReq            2754                       # Transaction distribution (Count)
system.membus.transDist::ReadSharedReq            342                       # Transaction distribution (Count)
system.membus.pktCount_system.cpu.icache.mem_side_port::system.mem_ctrls.port         8005                       # Packet count per connected requestor and responder (Count)
system.membus.pktCount_system.cpu.icache.mem_side_port::total         8005                       # Packet count per connected requestor and responder (Count)
system.membus.pktCount_system.cpu.dcache.mem_side_port::system.mem_ctrls.port         2100                       # Packet count per connected requestor and responder (Count)
system.membus.pktCount_system.cpu.dcache.mem_side_port::total         2100                       # Packet count per connected requestor and responder (Count)
system.membus.pktCount::total                   10105                       # Packet count per connected requestor and responder (Count)
system.membus.pktSize_system.cpu.icache.mem_side_port::system.mem_ctrls.port       336064                       # Cumulative packet size per connected requestor and responder (Byte)
system.membus.pktSize_system.cpu.icache.mem_side_port::total       336064                       # Cumulative packet size per connected requestor and responder (Byte)
system.membus.pktSize_system.cpu.dcache.mem_side_port::system.mem_ctrls.port        63232                       # Cumulative packet size per connected requestor and responder (Byte)
system.membus.pktSize_system.cpu.dcache.mem_side_port::total        63232                       # Cumulative packet size per connected requestor and responder (Byte)
system.membus.pktSize::total                   399296                       # Cumulative packet size per connected requestor and responder (Byte)
system.membus.snoops                                0                       # Total snoops (Count)
system.membus.snoopTraffic                          0                       # Total snoop traffic (Byte)
system.membus.snoopFanout::samples               3636                       # Request fanout histogram (Count)
system.membus.snoopFanout::mean                     0                       # Request fanout histogram (Count)
system.membus.snoopFanout::stdev                    0                       # Request fanout histogram (Count)
system.membus.snoopFanout::underflows               0      0.00%      0.00% # Request fanout histogram (Count)
system.membus.snoopFanout::0                     3636    100.00%    100.00% # Request fanout histogram (Count)
system.membus.snoopFanout::1                        0      0.00%    100.00% # Request fanout histogram (Count)
system.membus.snoopFanout::2                        0      0.00%    100.00% # Request fanout histogram (Count)
system.membus.snoopFanout::3                        0      0.00%    100.00% # Request fanout histogram (Count)
system.membus.snoopFanout::4                        0      0.00%    100.00% # Request fanout histogram (Count)
system.membus.snoopFanout::overflows                0      0.00%    100.00% # Request fanout histogram (Count)
system.membus.snoopFanout::min_value                0                       # Request fanout histogram (Count)
system.membus.snoopFanout::max_value                0                       # Request fanout histogram (Count)
system.membus.snoopFanout::total                 3636                       # Request fanout histogram (Count)
system.membus.power_state.pwrStateResidencyTicks::UNDEFINED  87977376000                       # Cumulative time (in ticks) in various power states (Tick)
system.membus.reqLayer2.occupancy            17474000                       # Layer occupancy (ticks) (Tick)
system.membus.reqLayer2.utilization               0.0                       # Layer utilization (Ratio)
system.membus.respLayer1.occupancy           13991750                       # Layer occupancy (ticks) (Tick)
system.membus.respLayer1.utilization              0.0                       # Layer utilization (Ratio)
system.membus.respLayer2.occupancy            4694750                       # Layer occupancy (ticks) (Tick)
system.membus.respLayer2.utilization              0.0                       # Layer utilization (Ratio)
system.membus.snoop_filter.totRequests           6470                       # Total number of requests made to the snoop filter. (Count)
system.membus.snoop_filter.hitSingleRequests         2834                       # Number of requests hitting in the snoop filter with a single holder of the requested data. (Count)
system.membus.snoop_filter.hitMultiRequests            0                       # Number of requests hitting in the snoop filter with multiple (>1) holders of the requested data. (Count)
system.membus.snoop_filter.totSnoops                0                       # Total number of snoops made to the snoop filter. (Count)
system.membus.snoop_filter.hitSingleSnoops            0                       # Number of snoops hitting in the snoop filter with a single holder of the requested data. (Count)
system.membus.snoop_filter.hitMultiSnoops            0                       # Number of snoops hitting in the snoop filter with multiple (>1) holders of the requested data. (Count)
system.voltage_domain.voltage                       1                       # Voltage in Volts (Volt)
system.workload.inst.arm                            0                       # number of arm instructions executed (Count)
system.workload.inst.quiesce                        0                       # number of quiesce instructions executed (Count)

---------- End Simulation Statistics   ----------
