
---------- Begin Simulation Statistics ----------
simSeconds                                   0.088169                       # Number of seconds simulated (Second)
simTicks                                  88169311000                       # Number of ticks simulated (Tick)
finalTick                                 88169311000                       # Number of ticks from beginning of simulation (restored from checkpoints and never reset) (Tick)
simFreq                                  1000000000000                       # The number of ticks per simulated second ((Tick/Second))
hostSeconds                                   2295.75                       # Real time elapsed on the host (Second)
hostTickRate                                 38405525                       # The number of ticks simulated per host second (ticks/s) ((Tick/Second))
hostMemory                                     666544                       # Number of bytes of host memory used (Byte)
simInsts                                    172916971                       # Number of instructions simulated (Count)
simOps                                      263412208                       # Number of ops (including micro ops) simulated (Count)
hostInstRate                                    75321                       # Simulator instruction rate (inst/s) ((Count/Second))
hostOpRate                                     114739                       # Simulator op (including micro ops) rate (op/s) ((Count/Second))
system.clk_domain.clock                          1000                       # Clock period in ticks (Tick)
system.cpu.numCycles                        176338623                       # Number of cpu cycles simulated (Cycle)
system.cpu.numWorkItemsStarted                      0                       # Number of work items this cpu started (Count)
system.cpu.numWorkItemsCompleted                    0                       # Number of work items this cpu completed (Count)
system.cpu.instsAdded                       518063133                       # Number of instructions added to the IQ (excludes non-spec) (Count)
system.cpu.nonSpecInstsAdded                        7                       # Number of non-speculative instructions added to the IQ (Count)
system.cpu.instsIssued                      391453314                       # Number of instructions issued (Count)
system.cpu.squashedInstsIssued                 207950                       # Number of squashed instructions issued (Count)
system.cpu.squashedInstsExamined            254650926                       # Number of squashed instructions iterated over during squash; mainly for profiling (Count)
system.cpu.squashedOperandsExamined         580831158                       # Number of squashed operands that are examined and possibly removed from graph (Count)
system.cpu.squashedNonSpecRemoved                   7                       # Number of squashed non-spec instructions that were removed (Count)
system.cpu.numIssuedDist::samples           176271985                       # Number of insts issued each cycle (Count)
system.cpu.numIssuedDist::mean               2.220735                       # Number of insts issued each cycle (Count)
system.cpu.numIssuedDist::stdev              2.005165                       # Number of insts issued each cycle (Count)
system.cpu.numIssuedDist::underflows                0      0.00%      0.00% # Number of insts issued each cycle (Count)
system.cpu.numIssuedDist::0                  56832302     32.24%     32.24% # Number of insts issued each cycle (Count)
system.cpu.numIssuedDist::1                  16092048      9.13%     41.37% # Number of insts issued each cycle (Count)
system.cpu.numIssuedDist::2                  24688283     14.01%     55.38% # Number of insts issued each cycle (Count)
system.cpu.numIssuedDist::3                  29875459     16.95%     72.32% # Number of insts issued each cycle (Count)
system.cpu.numIssuedDist::4                  23361038     13.25%     85.58% # Number of insts issued each cycle (Count)
system.cpu.numIssuedDist::5                  14212918      8.06%     93.64% # Number of insts issued each cycle (Count)
system.cpu.numIssuedDist::6                   7618553      4.32%     97.96% # Number of insts issued each cycle (Count)
system.cpu.numIssuedDist::7                   2592809      1.47%     99.43% # Number of insts issued each cycle (Count)
system.cpu.numIssuedDist::8                    998575      0.57%    100.00% # Number of insts issued each cycle (Count)
system.cpu.numIssuedDist::overflows                 0      0.00%    100.00% # Number of insts issued each cycle (Count)
system.cpu.numIssuedDist::min_value                 0                       # Number of insts issued each cycle (Count)
system.cpu.numIssuedDist::max_value                 8                       # Number of insts issued each cycle (Count)
system.cpu.numIssuedDist::total             176271985                       # Number of insts issued each cycle (Count)
system.cpu.statFuBusy::No_OpClass                   0      0.00%      0.00% # attempts to use FU when none available (Count)
system.cpu.statFuBusy::IntAlu                  735783      9.85%      9.85% # attempts to use FU when none available (Count)
system.cpu.statFuBusy::IntMult                      0      0.00%      9.85% # attempts to use FU when none available (Count)
system.cpu.statFuBusy::IntDiv                       0      0.00%      9.85% # attempts to use FU when none available (Count)
system.cpu.statFuBusy::FloatAdd                     0      0.00%      9.85% # attempts to use FU when none available (Count)
system.cpu.statFuBusy::FloatCmp                     0      0.00%      9.85% # attempts to use FU when none available (Count)
system.cpu.statFuBusy::FloatCvt                     0      0.00%      9.85% # attempts to use FU when none available (Count)
system.cpu.statFuBusy::FloatMult                    0      0.00%      9.85% # attempts to use FU when none available (Count)
system.cpu.statFuBusy::FloatMultAcc                 0      0.00%      9.85% # attempts to use FU when none available (Count)
system.cpu.statFuBusy::FloatDiv                     0      0.00%      9.85% # attempts to use FU when none available (Count)
system.cpu.statFuBusy::FloatMisc                    0      0.00%      9.85% # attempts to use FU when none available (Count)
system.cpu.statFuBusy::FloatSqrt                    0      0.00%      9.85% # attempts to use FU when none available (Count)
system.cpu.statFuBusy::SimdAdd                      0      0.00%      9.85% # attempts to use FU when none available (Count)
system.cpu.statFuBusy::SimdAddAcc                   0      0.00%      9.85% # attempts to use FU when none available (Count)
system.cpu.statFuBusy::SimdAlu                     16      0.00%      9.85% # attempts to use FU when none available (Count)
system.cpu.statFuBusy::SimdCmp                      0      0.00%      9.85% # attempts to use FU when none available (Count)
system.cpu.statFuBusy::SimdCvt                      3      0.00%      9.85% # attempts to use FU when none available (Count)
system.cpu.statFuBusy::SimdMisc                     2      0.00%      9.85% # attempts to use FU when none available (Count)
system.cpu.statFuBusy::SimdMult                     0      0.00%      9.85% # attempts to use FU when none available (Count)
system.cpu.statFuBusy::SimdMultAcc                  0      0.00%      9.85% # attempts to use FU when none available (Count)
system.cpu.statFuBusy::SimdShift                    0      0.00%      9.85% # attempts to use FU when none available (Count)
system.cpu.statFuBusy::SimdShiftAcc                 0      0.00%      9.85% # attempts to use FU when none available (Count)
system.cpu.statFuBusy::SimdDiv                      0      0.00%      9.85% # attempts to use FU when none available (Count)
system.cpu.statFuBusy::SimdSqrt                     0      0.00%      9.85% # attempts to use FU when none available (Count)
system.cpu.statFuBusy::SimdFloatAdd                 0      0.00%      9.85% # attempts to use FU when none available (Count)
system.cpu.statFuBusy::SimdFloatAlu                 0      0.00%      9.85% # attempts to use FU when none available (Count)
system.cpu.statFuBusy::SimdFloatCmp                 0      0.00%      9.85% # attempts to use FU when none available (Count)
system.cpu.statFuBusy::SimdFloatCvt                 0      0.00%      9.85% # attempts to use FU when none available (Count)
system.cpu.statFuBusy::SimdFloatDiv                 0      0.00%      9.85% # attempts to use FU when none available (Count)
system.cpu.statFuBusy::SimdFloatMisc                0      0.00%      9.85% # attempts to use FU when none available (Count)
system.cpu.statFuBusy::SimdFloatMult                0      0.00%      9.85% # attempts to use FU when none available (Count)
system.cpu.statFuBusy::SimdFloatMultAcc             0      0.00%      9.85% # attempts to use FU when none available (Count)
system.cpu.statFuBusy::SimdFloatSqrt                0      0.00%      9.85% # attempts to use FU when none available (Count)
system.cpu.statFuBusy::SimdReduceAdd                0      0.00%      9.85% # attempts to use FU when none available (Count)
system.cpu.statFuBusy::SimdReduceAlu                0      0.00%      9.85% # attempts to use FU when none available (Count)
system.cpu.statFuBusy::SimdReduceCmp                0      0.00%      9.85% # attempts to use FU when none available (Count)
system.cpu.statFuBusy::SimdFloatReduceAdd            0      0.00%      9.85% # attempts to use FU when none available (Count)
system.cpu.statFuBusy::SimdFloatReduceCmp            0      0.00%      9.85% # attempts to use FU when none available (Count)
system.cpu.statFuBusy::SimdAes                      0      0.00%      9.85% # attempts to use FU when none available (Count)
system.cpu.statFuBusy::SimdAesMix                   0      0.00%      9.85% # attempts to use FU when none available (Count)
system.cpu.statFuBusy::SimdSha1Hash                 0      0.00%      9.85% # attempts to use FU when none available (Count)
system.cpu.statFuBusy::SimdSha1Hash2                0      0.00%      9.85% # attempts to use FU when none available (Count)
system.cpu.statFuBusy::SimdSha256Hash               0      0.00%      9.85% # attempts to use FU when none available (Count)
system.cpu.statFuBusy::SimdSha256Hash2              0      0.00%      9.85% # attempts to use FU when none available (Count)
system.cpu.statFuBusy::SimdShaSigma2                0      0.00%      9.85% # attempts to use FU when none available (Count)
system.cpu.statFuBusy::SimdShaSigma3                0      0.00%      9.85% # attempts to use FU when none available (Count)
system.cpu.statFuBusy::SimdPredAlu                  0      0.00%      9.85% # attempts to use FU when none available (Count)
system.cpu.statFuBusy::MemRead                6464736     86.50%     96.35% # attempts to use FU when none available (Count)
system.cpu.statFuBusy::MemWrite                272551      3.65%     99.99% # attempts to use FU when none available (Count)
system.cpu.statFuBusy::FloatMemRead                 1      0.00%     99.99% # attempts to use FU when none available (Count)
system.cpu.statFuBusy::FloatMemWrite              423      0.01%    100.00% # attempts to use FU when none available (Count)
system.cpu.statFuBusy::IprAccess                    0      0.00%    100.00% # attempts to use FU when none available (Count)
system.cpu.statFuBusy::InstPrefetch                 0      0.00%    100.00% # attempts to use FU when none available (Count)
system.cpu.statIssuedInstType_0::No_OpClass      1300357      0.33%      0.33% # Number of instructions issued per FU type, per thread (Count)
system.cpu.statIssuedInstType_0::IntAlu     238201295     60.85%     61.18% # Number of instructions issued per FU type, per thread (Count)
system.cpu.statIssuedInstType_0::IntMult      1502515      0.38%     61.57% # Number of instructions issued per FU type, per thread (Count)
system.cpu.statIssuedInstType_0::IntDiv           725      0.00%     61.57% # Number of instructions issued per FU type, per thread (Count)
system.cpu.statIssuedInstType_0::FloatAdd          359      0.00%     61.57% # Number of instructions issued per FU type, per thread (Count)
system.cpu.statIssuedInstType_0::FloatCmp            0      0.00%     61.57% # Number of instructions issued per FU type, per thread (Count)
system.cpu.statIssuedInstType_0::FloatCvt            0      0.00%     61.57% # Number of instructions issued per FU type, per thread (Count)
system.cpu.statIssuedInstType_0::FloatMult            0      0.00%     61.57% # Number of instructions issued per FU type, per thread (Count)
system.cpu.statIssuedInstType_0::FloatMultAcc            0      0.00%     61.57% # Number of instructions issued per FU type, per thread (Count)
system.cpu.statIssuedInstType_0::FloatDiv            0      0.00%     61.57% # Number of instructions issued per FU type, per thread (Count)
system.cpu.statIssuedInstType_0::FloatMisc            0      0.00%     61.57% # Number of instructions issued per FU type, per thread (Count)
system.cpu.statIssuedInstType_0::FloatSqrt            0      0.00%     61.57% # Number of instructions issued per FU type, per thread (Count)
system.cpu.statIssuedInstType_0::SimdAdd            0      0.00%     61.57% # Number of instructions issued per FU type, per thread (Count)
system.cpu.statIssuedInstType_0::SimdAddAcc            0      0.00%     61.57% # Number of instructions issued per FU type, per thread (Count)
system.cpu.statIssuedInstType_0::SimdAlu         1808      0.00%     61.57% # Number of instructions issued per FU type, per thread (Count)
system.cpu.statIssuedInstType_0::SimdCmp            0      0.00%     61.57% # Number of instructions issued per FU type, per thread (Count)
system.cpu.statIssuedInstType_0::SimdCvt          850      0.00%     61.57% # Number of instructions issued per FU type, per thread (Count)
system.cpu.statIssuedInstType_0::SimdMisc         2034      0.00%     61.57% # Number of instructions issued per FU type, per thread (Count)
system.cpu.statIssuedInstType_0::SimdMult            0      0.00%     61.57% # Number of instructions issued per FU type, per thread (Count)
system.cpu.statIssuedInstType_0::SimdMultAcc            0      0.00%     61.57% # Number of instructions issued per FU type, per thread (Count)
system.cpu.statIssuedInstType_0::SimdShift            0      0.00%     61.57% # Number of instructions issued per FU type, per thread (Count)
system.cpu.statIssuedInstType_0::SimdShiftAcc            0      0.00%     61.57% # Number of instructions issued per FU type, per thread (Count)
system.cpu.statIssuedInstType_0::SimdDiv            0      0.00%     61.57% # Number of instructions issued per FU type, per thread (Count)
system.cpu.statIssuedInstType_0::SimdSqrt            0      0.00%     61.57% # Number of instructions issued per FU type, per thread (Count)
system.cpu.statIssuedInstType_0::SimdFloatAdd            0      0.00%     61.57% # Number of instructions issued per FU type, per thread (Count)
system.cpu.statIssuedInstType_0::SimdFloatAlu            0      0.00%     61.57% # Number of instructions issued per FU type, per thread (Count)
system.cpu.statIssuedInstType_0::SimdFloatCmp            0      0.00%     61.57% # Number of instructions issued per FU type, per thread (Count)
system.cpu.statIssuedInstType_0::SimdFloatCvt            0      0.00%     61.57% # Number of instructions issued per FU type, per thread (Count)
system.cpu.statIssuedInstType_0::SimdFloatDiv            0      0.00%     61.57% # Number of instructions issued per FU type, per thread (Count)
system.cpu.statIssuedInstType_0::SimdFloatMisc            0      0.00%     61.57% # Number of instructions issued per FU type, per thread (Count)
system.cpu.statIssuedInstType_0::SimdFloatMult            0      0.00%     61.57% # Number of instructions issued per FU type, per thread (Count)
system.cpu.statIssuedInstType_0::SimdFloatMultAcc            0      0.00%     61.57% # Number of instructions issued per FU type, per thread (Count)
system.cpu.statIssuedInstType_0::SimdFloatSqrt            0      0.00%     61.57% # Number of instructions issued per FU type, per thread (Count)
system.cpu.statIssuedInstType_0::SimdReduceAdd            0      0.00%     61.57% # Number of instructions issued per FU type, per thread (Count)
system.cpu.statIssuedInstType_0::SimdReduceAlu            0      0.00%     61.57% # Number of instructions issued per FU type, per thread (Count)
system.cpu.statIssuedInstType_0::SimdReduceCmp            0      0.00%     61.57% # Number of instructions issued per FU type, per thread (Count)
system.cpu.statIssuedInstType_0::SimdFloatReduceAdd            0      0.00%     61.57% # Number of instructions issued per FU type, per thread (Count)
system.cpu.statIssuedInstType_0::SimdFloatReduceCmp            0      0.00%     61.57% # Number of instructions issued per FU type, per thread (Count)
system.cpu.statIssuedInstType_0::SimdAes            0      0.00%     61.57% # Number of instructions issued per FU type, per thread (Count)
system.cpu.statIssuedInstType_0::SimdAesMix            0      0.00%     61.57% # Number of instructions issued per FU type, per thread (Count)
system.cpu.statIssuedInstType_0::SimdSha1Hash            0      0.00%     61.57% # Number of instructions issued per FU type, per thread (Count)
system.cpu.statIssuedInstType_0::SimdSha1Hash2            0      0.00%     61.57% # Number of instructions issued per FU type, per thread (Count)
system.cpu.statIssuedInstType_0::SimdSha256Hash            0      0.00%     61.57% # Number of instructions issued per FU type, per thread (Count)
system.cpu.statIssuedInstType_0::SimdSha256Hash2            0      0.00%     61.57% # Number of instructions issued per FU type, per thread (Count)
system.cpu.statIssuedInstType_0::SimdShaSigma2            0      0.00%     61.57% # Number of instructions issued per FU type, per thread (Count)
system.cpu.statIssuedInstType_0::SimdShaSigma3            0      0.00%     61.57% # Number of instructions issued per FU type, per thread (Count)
system.cpu.statIssuedInstType_0::SimdPredAlu            0      0.00%     61.57% # Number of instructions issued per FU type, per thread (Count)
system.cpu.statIssuedInstType_0::MemRead    124974050     31.93%     93.49% # Number of instructions issued per FU type, per thread (Count)
system.cpu.statIssuedInstType_0::MemWrite     25466612      6.51%    100.00% # Number of instructions issued per FU type, per thread (Count)
system.cpu.statIssuedInstType_0::FloatMemRead          864      0.00%    100.00% # Number of instructions issued per FU type, per thread (Count)
system.cpu.statIssuedInstType_0::FloatMemWrite         1845      0.00%    100.00% # Number of instructions issued per FU type, per thread (Count)
system.cpu.statIssuedInstType_0::IprAccess            0      0.00%    100.00% # Number of instructions issued per FU type, per thread (Count)
system.cpu.statIssuedInstType_0::InstPrefetch            0      0.00%    100.00% # Number of instructions issued per FU type, per thread (Count)
system.cpu.statIssuedInstType_0::total      391453314                       # Number of instructions issued per FU type, per thread (Count)
system.cpu.issueRate                         2.219895                       # Inst issue rate ((Count/Cycle))
system.cpu.fuBusy                             7473515                       # FU busy when requested (Count)
system.cpu.fuBusyRate                        0.019092                       # FU busy rate (busy events/executed inst) ((Count/Count))
system.cpu.intInstQueueReads                966842124                       # Number of integer instruction queue reads (Count)
system.cpu.intInstQueueWrites               772710309                       # Number of integer instruction queue writes (Count)
system.cpu.intInstQueueWakeupAccesses       379408297                       # Number of integer instruction queue wakeup accesses (Count)
system.cpu.fpInstQueueReads                     17954                       # Number of floating instruction queue reads (Count)
system.cpu.fpInstQueueWrites                    12334                       # Number of floating instruction queue writes (Count)
system.cpu.fpInstQueueWakeupAccesses             8042                       # Number of floating instruction queue wakeup accesses (Count)
system.cpu.vecInstQueueReads                        0                       # Number of vector instruction queue reads (Count)
system.cpu.vecInstQueueWrites                       0                       # Number of vector instruction queue writes (Count)
system.cpu.vecInstQueueWakeupAccesses               0                       # Number of vector instruction queue wakeup accesses (Count)
system.cpu.intAluAccesses                   397617519                       # Number of integer alu accesses (Count)
system.cpu.fpAluAccesses                         8953                       # Number of floating point alu accesses (Count)
system.cpu.vecAluAccesses                           0                       # Number of vector alu accesses (Count)
system.cpu.numInsts                         384811590                       # Number of executed instructions (Count)
system.cpu.numLoadInsts                     121963491                       # Number of load instructions executed (Count)
system.cpu.numSquashedInsts                   6641724                       # Number of squashed instructions skipped in execute (Count)
system.cpu.numSwp                                   0                       # Number of swp insts executed (Count)
system.cpu.numNop                                   0                       # Number of nop insts executed (Count)
system.cpu.numRefs                          146149562                       # Number of memory reference insts executed (Count)
system.cpu.numBranches                       23550548                       # Number of branches executed (Count)
system.cpu.numStoreInsts                     24186071                       # Number of stores executed (Count)
system.cpu.numRate                           2.182231                       # Inst execution rate ((Count/Cycle))
system.cpu.timesIdled                            1560                       # Number of times that the entire CPU went into an idle state and unscheduled itself (Count)
system.cpu.idleCycles                           66638                       # Total number of cycles that the CPU has spent unscheduled due to idling (Cycle)
system.cpu.committedInsts                   172916971                       # Number of Instructions Simulated (Count)
system.cpu.committedOps                     263412208                       # Number of Ops (including micro ops) Simulated (Count)
system.cpu.cpi                               1.019788                       # CPI: Cycles Per Instruction ((Cycle/Count))
system.cpu.totalCpi                          1.019788                       # CPI: Total CPI of All Threads ((Cycle/Count))
system.cpu.ipc                               0.980596                       # IPC: Instructions Per Cycle ((Count/Cycle))
system.cpu.totalIpc                          0.980596                       # IPC: Total IPC of All Threads ((Count/Cycle))
system.cpu.intRegfileReads                  439145118                       # Number of integer regfile reads (Count)
system.cpu.intRegfileWrites                 315509283                       # Number of integer regfile writes (Count)
system.cpu.fpRegfileReads                       12882                       # Number of floating regfile reads (Count)
system.cpu.fpRegfileWrites                       5974                       # Number of floating regfile writes (Count)
system.cpu.ccRegfileReads                    86389914                       # number of cc regfile reads (Count)
system.cpu.ccRegfileWrites                  111164221                       # number of cc regfile writes (Count)
system.cpu.miscRegfileReads                 206758729                       # number of misc regfile reads (Count)
system.cpu.MemDepUnit__0.insertedLoads      166654318                       # Number of loads inserted to the mem dependence unit. (Count)
system.cpu.MemDepUnit__0.insertedStores      38677375                       # Number of stores inserted to the mem dependence unit. (Count)
system.cpu.MemDepUnit__0.conflictingLoads    104046370                       # Number of conflicting loads. (Count)
system.cpu.MemDepUnit__0.conflictingStores     21796377                       # Number of conflicting stores. (Count)
system.cpu.MemDepUnit__1.insertedLoads              0                       # Number of loads inserted to the mem dependence unit. (Count)
system.cpu.MemDepUnit__1.insertedStores             0                       # Number of stores inserted to the mem dependence unit. (Count)
system.cpu.MemDepUnit__1.conflictingLoads            0                       # Number of conflicting loads. (Count)
system.cpu.MemDepUnit__1.conflictingStores            0                       # Number of conflicting stores. (Count)
system.cpu.MemDepUnit__2.insertedLoads              0                       # Number of loads inserted to the mem dependence unit. (Count)
system.cpu.MemDepUnit__2.insertedStores             0                       # Number of stores inserted to the mem dependence unit. (Count)
system.cpu.MemDepUnit__2.conflictingLoads            0                       # Number of conflicting loads. (Count)
system.cpu.MemDepUnit__2.conflictingStores            0                       # Number of conflicting stores. (Count)
system.cpu.MemDepUnit__3.insertedLoads              0                       # Number of loads inserted to the mem dependence unit. (Count)
system.cpu.MemDepUnit__3.insertedStores             0                       # Number of stores inserted to the mem dependence unit. (Count)
system.cpu.MemDepUnit__3.conflictingLoads            0                       # Number of conflicting loads. (Count)
system.cpu.MemDepUnit__3.conflictingStores            0                       # Number of conflicting stores. (Count)
system.cpu.branchPred.lookups                44133953                       # Number of BP lookups (Count)
system.cpu.branchPred.condPredicted          34836647                       # Number of conditional branches predicted (Count)
system.cpu.branchPred.condIncorrect           3471139                       # Number of conditional branches incorrect (Count)
system.cpu.branchPred.BTBLookups             27211932                       # Number of BTB lookups (Count)
system.cpu.branchPred.BTBUpdates              1616639                       # Number of BTB updates (Count)
system.cpu.branchPred.BTBHits                27209280                       # Number of BTB hits (Count)
system.cpu.branchPred.BTBHitRatio            0.999903                       # BTB Hit Ratio (Ratio)
system.cpu.branchPred.RASUsed                 2087623                       # Number of times the RAS was used to get a target. (Count)
system.cpu.branchPred.RASIncorrect               2899                       # Number of incorrect RAS predictions. (Count)
system.cpu.branchPred.indirectLookups            1906                       # Number of indirect predictor lookups. (Count)
system.cpu.branchPred.indirectHits               1496                       # Number of indirect target hits. (Count)
system.cpu.branchPred.indirectMisses              410                       # Number of indirect misses. (Count)
system.cpu.branchPred.indirectMispredicted          134                       # Number of mispredicted indirect branches. (Count)
system.cpu.commit.commitSquashedInsts       254646611                       # The number of squashed insts skipped by commit (Count)
system.cpu.commit.branchMispredicts           3470886                       # The number of times a branch was mispredicted (Count)
system.cpu.commit.numCommittedDist::samples    142567749                       # Number of insts commited each cycle (Count)
system.cpu.commit.numCommittedDist::mean     1.847628                       # Number of insts commited each cycle (Count)
system.cpu.commit.numCommittedDist::stdev     2.423842                       # Number of insts commited each cycle (Count)
system.cpu.commit.numCommittedDist::underflows            0      0.00%      0.00% # Number of insts commited each cycle (Count)
system.cpu.commit.numCommittedDist::0        52885859     37.10%     37.10% # Number of insts commited each cycle (Count)
system.cpu.commit.numCommittedDist::1        36749245     25.78%     62.87% # Number of insts commited each cycle (Count)
system.cpu.commit.numCommittedDist::2        19690921     13.81%     76.68% # Number of insts commited each cycle (Count)
system.cpu.commit.numCommittedDist::3         8762831      6.15%     82.83% # Number of insts commited each cycle (Count)
system.cpu.commit.numCommittedDist::4         5315159      3.73%     86.56% # Number of insts commited each cycle (Count)
system.cpu.commit.numCommittedDist::5         2972869      2.09%     88.64% # Number of insts commited each cycle (Count)
system.cpu.commit.numCommittedDist::6         2102981      1.48%     90.12% # Number of insts commited each cycle (Count)
system.cpu.commit.numCommittedDist::7          453311      0.32%     90.44% # Number of insts commited each cycle (Count)
system.cpu.commit.numCommittedDist::8        13634573      9.56%    100.00% # Number of insts commited each cycle (Count)
system.cpu.commit.numCommittedDist::overflows            0      0.00%    100.00% # Number of insts commited each cycle (Count)
system.cpu.commit.numCommittedDist::min_value            0                       # Number of insts commited each cycle (Count)
system.cpu.commit.numCommittedDist::max_value            8                       # Number of insts commited each cycle (Count)
system.cpu.commit.numCommittedDist::total    142567749                       # Number of insts commited each cycle (Count)
system.cpu.commit.instsCommitted            172916971                       # Number of instructions committed (Count)
system.cpu.commit.opsCommitted              263412208                       # Number of ops (including micro ops) committed (Count)
system.cpu.commit.memRefs                    99052922                       # Number of memory references committed (Count)
system.cpu.commit.loads                      79726499                       # Number of loads committed (Count)
system.cpu.commit.amos                              0                       # Number of atomic instructions committed (Count)
system.cpu.commit.membars                           0                       # Number of memory barriers committed (Count)
system.cpu.commit.branches                   18226474                       # Number of branches committed (Count)
system.cpu.commit.vectorInstructions                0                       # Number of committed Vector instructions. (Count)
system.cpu.commit.floating                       6174                       # Number of committed floating point instructions. (Count)
system.cpu.commit.integer                   262017643                       # Number of committed integer instructions. (Count)
system.cpu.commit.functionCalls                945255                       # Number of function calls committed. (Count)
system.cpu.commit.committedInstType_0::No_OpClass       946295      0.36%      0.36% # Class of committed instruction (Count)
system.cpu.commit.committedInstType_0::IntAlu    161907659     61.47%     61.82% # Class of committed instruction (Count)
system.cpu.commit.committedInstType_0::IntMult      1500505      0.57%     62.39% # Class of committed instruction (Count)
system.cpu.commit.committedInstType_0::IntDiv          721      0.00%     62.39% # Class of committed instruction (Count)
system.cpu.commit.committedInstType_0::FloatAdd          344      0.00%     62.39% # Class of committed instruction (Count)
system.cpu.commit.committedInstType_0::FloatCmp            0      0.00%     62.39% # Class of committed instruction (Count)
system.cpu.commit.committedInstType_0::FloatCvt            0      0.00%     62.39% # Class of committed instruction (Count)
system.cpu.commit.committedInstType_0::FloatMult            0      0.00%     62.39% # Class of committed instruction (Count)
system.cpu.commit.committedInstType_0::FloatMultAcc            0      0.00%     62.39% # Class of committed instruction (Count)
system.cpu.commit.committedInstType_0::FloatDiv            0      0.00%     62.39% # Class of committed instruction (Count)
system.cpu.commit.committedInstType_0::FloatMisc            0      0.00%     62.39% # Class of committed instruction (Count)
system.cpu.commit.committedInstType_0::FloatSqrt            0      0.00%     62.39% # Class of committed instruction (Count)
system.cpu.commit.committedInstType_0::SimdAdd            0      0.00%     62.39% # Class of committed instruction (Count)
system.cpu.commit.committedInstType_0::SimdAddAcc            0      0.00%     62.39% # Class of committed instruction (Count)
system.cpu.commit.committedInstType_0::SimdAlu          896      0.00%     62.40% # Class of committed instruction (Count)
system.cpu.commit.committedInstType_0::SimdCmp            0      0.00%     62.40% # Class of committed instruction (Count)
system.cpu.commit.committedInstType_0::SimdCvt          846      0.00%     62.40% # Class of committed instruction (Count)
system.cpu.commit.committedInstType_0::SimdMisc         2020      0.00%     62.40% # Class of committed instruction (Count)
system.cpu.commit.committedInstType_0::SimdMult            0      0.00%     62.40% # Class of committed instruction (Count)
system.cpu.commit.committedInstType_0::SimdMultAcc            0      0.00%     62.40% # Class of committed instruction (Count)
system.cpu.commit.committedInstType_0::SimdShift            0      0.00%     62.40% # Class of committed instruction (Count)
system.cpu.commit.committedInstType_0::SimdShiftAcc            0      0.00%     62.40% # Class of committed instruction (Count)
system.cpu.commit.committedInstType_0::SimdDiv            0      0.00%     62.40% # Class of committed instruction (Count)
system.cpu.commit.committedInstType_0::SimdSqrt            0      0.00%     62.40% # Class of committed instruction (Count)
system.cpu.commit.committedInstType_0::SimdFloatAdd            0      0.00%     62.40% # Class of committed instruction (Count)
system.cpu.commit.committedInstType_0::SimdFloatAlu            0      0.00%     62.40% # Class of committed instruction (Count)
system.cpu.commit.committedInstType_0::SimdFloatCmp            0      0.00%     62.40% # Class of committed instruction (Count)
system.cpu.commit.committedInstType_0::SimdFloatCvt            0      0.00%     62.40% # Class of committed instruction (Count)
system.cpu.commit.committedInstType_0::SimdFloatDiv            0      0.00%     62.40% # Class of committed instruction (Count)
system.cpu.commit.committedInstType_0::SimdFloatMisc            0      0.00%     62.40% # Class of committed instruction (Count)
system.cpu.commit.committedInstType_0::SimdFloatMult            0      0.00%     62.40% # Class of committed instruction (Count)
system.cpu.commit.committedInstType_0::SimdFloatMultAcc            0      0.00%     62.40% # Class of committed instruction (Count)
system.cpu.commit.committedInstType_0::SimdFloatSqrt            0      0.00%     62.40% # Class of committed instruction (Count)
system.cpu.commit.committedInstType_0::SimdReduceAdd            0      0.00%     62.40% # Class of committed instruction (Count)
system.cpu.commit.committedInstType_0::SimdReduceAlu            0      0.00%     62.40% # Class of committed instruction (Count)
system.cpu.commit.committedInstType_0::SimdReduceCmp            0      0.00%     62.40% # Class of committed instruction (Count)
system.cpu.commit.committedInstType_0::SimdFloatReduceAdd            0      0.00%     62.40% # Class of committed instruction (Count)
system.cpu.commit.committedInstType_0::SimdFloatReduceCmp            0      0.00%     62.40% # Class of committed instruction (Count)
system.cpu.commit.committedInstType_0::SimdAes            0      0.00%     62.40% # Class of committed instruction (Count)
system.cpu.commit.committedInstType_0::SimdAesMix            0      0.00%     62.40% # Class of committed instruction (Count)
system.cpu.commit.committedInstType_0::SimdSha1Hash            0      0.00%     62.40% # Class of committed instruction (Count)
system.cpu.commit.committedInstType_0::SimdSha1Hash2            0      0.00%     62.40% # Class of committed instruction (Count)
system.cpu.commit.committedInstType_0::SimdSha256Hash            0      0.00%     62.40% # Class of committed instruction (Count)
system.cpu.commit.committedInstType_0::SimdSha256Hash2            0      0.00%     62.40% # Class of committed instruction (Count)
system.cpu.commit.committedInstType_0::SimdShaSigma2            0      0.00%     62.40% # Class of committed instruction (Count)
system.cpu.commit.committedInstType_0::SimdShaSigma3            0      0.00%     62.40% # Class of committed instruction (Count)
system.cpu.commit.committedInstType_0::SimdPredAlu            0      0.00%     62.40% # Class of committed instruction (Count)
system.cpu.commit.committedInstType_0::MemRead     79725851     30.27%     92.66% # Class of committed instruction (Count)
system.cpu.commit.committedInstType_0::MemWrite     19325746      7.34%    100.00% # Class of committed instruction (Count)
system.cpu.commit.committedInstType_0::FloatMemRead          648      0.00%    100.00% # Class of committed instruction (Count)
system.cpu.commit.committedInstType_0::FloatMemWrite          677      0.00%    100.00% # Class of committed instruction (Count)
system.cpu.commit.committedInstType_0::IprAccess            0      0.00%    100.00% # Class of committed instruction (Count)
system.cpu.commit.committedInstType_0::InstPrefetch            0      0.00%    100.00% # Class of committed instruction (Count)
system.cpu.commit.committedInstType_0::total    263412208                       # Class of committed instruction (Count)
system.cpu.commit.commitEligibleSamples      13634573                       # number cycles where commit BW limit reached (Cycle)
system.cpu.dcache.demandHits::cpu.data      105923480                       # number of demand (read+write) hits (Count)
system.cpu.dcache.demandHits::total         105923480                       # number of demand (read+write) hits (Count)
system.cpu.dcache.overallHits::cpu.data     105923480                       # number of overall hits (Count)
system.cpu.dcache.overallHits::total        105923480                       # number of overall hits (Count)
system.cpu.dcache.demandMisses::cpu.data         1464                       # number of demand (read+write) misses (Count)
system.cpu.dcache.demandMisses::total            1464                       # number of demand (read+write) misses (Count)
system.cpu.dcache.overallMisses::cpu.data         1464                       # number of overall misses (Count)
system.cpu.dcache.overallMisses::total           1464                       # number of overall misses (Count)
system.cpu.dcache.demandMissLatency::cpu.data     81918000                       # number of demand (read+write) miss ticks (Tick)
system.cpu.dcache.demandMissLatency::total     81918000                       # number of demand (read+write) miss ticks (Tick)
system.cpu.dcache.overallMissLatency::cpu.data     81918000                       # number of overall miss ticks (Tick)
system.cpu.dcache.overallMissLatency::total     81918000                       # number of overall miss ticks (Tick)
system.cpu.dcache.demandAccesses::cpu.data    105924944                       # number of demand (read+write) accesses (Count)
system.cpu.dcache.demandAccesses::total     105924944                       # number of demand (read+write) accesses (Count)
system.cpu.dcache.overallAccesses::cpu.data    105924944                       # number of overall (read+write) accesses (Count)
system.cpu.dcache.overallAccesses::total    105924944                       # number of overall (read+write) accesses (Count)
system.cpu.dcache.demandMissRate::cpu.data     0.000014                       # miss rate for demand accesses (Ratio)
system.cpu.dcache.demandMissRate::total      0.000014                       # miss rate for demand accesses (Ratio)
system.cpu.dcache.overallMissRate::cpu.data     0.000014                       # miss rate for overall accesses (Ratio)
system.cpu.dcache.overallMissRate::total     0.000014                       # miss rate for overall accesses (Ratio)
system.cpu.dcache.demandAvgMissLatency::cpu.data 55954.918033                       # average overall miss latency in ticks ((Tick/Count))
system.cpu.dcache.demandAvgMissLatency::total 55954.918033                       # average overall miss latency in ticks ((Tick/Count))
system.cpu.dcache.overallAvgMissLatency::cpu.data 55954.918033                       # average overall miss latency ((Tick/Count))
system.cpu.dcache.overallAvgMissLatency::total 55954.918033                       # average overall miss latency ((Tick/Count))
system.cpu.dcache.blockedCycles::no_mshrs          398                       # number of cycles access was blocked (Cycle)
system.cpu.dcache.blockedCycles::no_targets            0                       # number of cycles access was blocked (Cycle)
system.cpu.dcache.blockedCauses::no_mshrs           13                       # number of times access was blocked (Count)
system.cpu.dcache.blockedCauses::no_targets            0                       # number of times access was blocked (Count)
system.cpu.dcache.avgBlocked::no_mshrs      30.615385                       # average number of cycles each access was blocked ((Cycle/Count))
system.cpu.dcache.avgBlocked::no_targets          nan                       # average number of cycles each access was blocked ((Cycle/Count))
system.cpu.dcache.writebacks::writebacks          106                       # number of writebacks (Count)
system.cpu.dcache.writebacks::total               106                       # number of writebacks (Count)
system.cpu.dcache.demandMshrHits::cpu.data          582                       # number of demand (read+write) MSHR hits (Count)
system.cpu.dcache.demandMshrHits::total           582                       # number of demand (read+write) MSHR hits (Count)
system.cpu.dcache.overallMshrHits::cpu.data          582                       # number of overall MSHR hits (Count)
system.cpu.dcache.overallMshrHits::total          582                       # number of overall MSHR hits (Count)
system.cpu.dcache.demandMshrMisses::cpu.data          882                       # number of demand (read+write) MSHR misses (Count)
system.cpu.dcache.demandMshrMisses::total          882                       # number of demand (read+write) MSHR misses (Count)
system.cpu.dcache.overallMshrMisses::cpu.data          882                       # number of overall MSHR misses (Count)
system.cpu.dcache.overallMshrMisses::total          882                       # number of overall MSHR misses (Count)
system.cpu.dcache.demandMshrMissLatency::cpu.data     52066000                       # number of demand (read+write) MSHR miss ticks (Tick)
system.cpu.dcache.demandMshrMissLatency::total     52066000                       # number of demand (read+write) MSHR miss ticks (Tick)
system.cpu.dcache.overallMshrMissLatency::cpu.data     52066000                       # number of overall MSHR miss ticks (Tick)
system.cpu.dcache.overallMshrMissLatency::total     52066000                       # number of overall MSHR miss ticks (Tick)
system.cpu.dcache.demandMshrMissRate::cpu.data     0.000008                       # mshr miss ratio for demand accesses (Ratio)
system.cpu.dcache.demandMshrMissRate::total     0.000008                       # mshr miss ratio for demand accesses (Ratio)
system.cpu.dcache.overallMshrMissRate::cpu.data     0.000008                       # mshr miss ratio for overall accesses (Ratio)
system.cpu.dcache.overallMshrMissRate::total     0.000008                       # mshr miss ratio for overall accesses (Ratio)
system.cpu.dcache.demandAvgMshrMissLatency::cpu.data 59031.746032                       # average overall mshr miss latency ((Tick/Count))
system.cpu.dcache.demandAvgMshrMissLatency::total 59031.746032                       # average overall mshr miss latency ((Tick/Count))
system.cpu.dcache.overallAvgMshrMissLatency::cpu.data 59031.746032                       # average overall mshr miss latency ((Tick/Count))
system.cpu.dcache.overallAvgMshrMissLatency::total 59031.746032                       # average overall mshr miss latency ((Tick/Count))
system.cpu.dcache.replacements                    336                       # number of replacements (Count)
system.cpu.dcache.ReadReq.hits::cpu.data     86597600                       # number of ReadReq hits (Count)
system.cpu.dcache.ReadReq.hits::total        86597600                       # number of ReadReq hits (Count)
system.cpu.dcache.ReadReq.misses::cpu.data          920                       # number of ReadReq misses (Count)
system.cpu.dcache.ReadReq.misses::total           920                       # number of ReadReq misses (Count)
system.cpu.dcache.ReadReq.missLatency::cpu.data     53120500                       # number of ReadReq miss ticks (Tick)
system.cpu.dcache.ReadReq.missLatency::total     53120500                       # number of ReadReq miss ticks (Tick)
system.cpu.dcache.ReadReq.accesses::cpu.data     86598520                       # number of ReadReq accesses(hits+misses) (Count)
system.cpu.dcache.ReadReq.accesses::total     86598520                       # number of ReadReq accesses(hits+misses) (Count)
system.cpu.dcache.ReadReq.missRate::cpu.data     0.000011                       # miss rate for ReadReq accesses (Ratio)
system.cpu.dcache.ReadReq.missRate::total     0.000011                       # miss rate for ReadReq accesses (Ratio)
system.cpu.dcache.ReadReq.avgMissLatency::cpu.data 57739.673913                       # average ReadReq miss latency ((Tick/Count))
system.cpu.dcache.ReadReq.avgMissLatency::total 57739.673913                       # average ReadReq miss latency ((Tick/Count))
system.cpu.dcache.ReadReq.mshrHits::cpu.data          579                       # number of ReadReq MSHR hits (Count)
system.cpu.dcache.ReadReq.mshrHits::total          579                       # number of ReadReq MSHR hits (Count)
system.cpu.dcache.ReadReq.mshrMisses::cpu.data          341                       # number of ReadReq MSHR misses (Count)
system.cpu.dcache.ReadReq.mshrMisses::total          341                       # number of ReadReq MSHR misses (Count)
system.cpu.dcache.ReadReq.mshrMissLatency::cpu.data     23947000                       # number of ReadReq MSHR miss ticks (Tick)
system.cpu.dcache.ReadReq.mshrMissLatency::total     23947000                       # number of ReadReq MSHR miss ticks (Tick)
system.cpu.dcache.ReadReq.mshrMissRate::cpu.data     0.000004                       # mshr miss rate for ReadReq accesses (Ratio)
system.cpu.dcache.ReadReq.mshrMissRate::total     0.000004                       # mshr miss rate for ReadReq accesses (Ratio)
system.cpu.dcache.ReadReq.avgMshrMissLatency::cpu.data 70225.806452                       # average ReadReq mshr miss latency ((Tick/Count))
system.cpu.dcache.ReadReq.avgMshrMissLatency::total 70225.806452                       # average ReadReq mshr miss latency ((Tick/Count))
system.cpu.dcache.WriteReq.hits::cpu.data     19325880                       # number of WriteReq hits (Count)
system.cpu.dcache.WriteReq.hits::total       19325880                       # number of WriteReq hits (Count)
system.cpu.dcache.WriteReq.misses::cpu.data          544                       # number of WriteReq misses (Count)
system.cpu.dcache.WriteReq.misses::total          544                       # number of WriteReq misses (Count)
system.cpu.dcache.WriteReq.missLatency::cpu.data     28797500                       # number of WriteReq miss ticks (Tick)
system.cpu.dcache.WriteReq.missLatency::total     28797500                       # number of WriteReq miss ticks (Tick)
system.cpu.dcache.WriteReq.accesses::cpu.data     19326424                       # number of WriteReq accesses(hits+misses) (Count)
system.cpu.dcache.WriteReq.accesses::total     19326424                       # number of WriteReq accesses(hits+misses) (Count)
system.cpu.dcache.WriteReq.missRate::cpu.data     0.000028                       # miss rate for WriteReq accesses (Ratio)
system.cpu.dcache.WriteReq.missRate::total     0.000028                       # miss rate for WriteReq accesses (Ratio)
system.cpu.dcache.WriteReq.avgMissLatency::cpu.data 52936.580882                       # average WriteReq miss latency ((Tick/Count))
system.cpu.dcache.WriteReq.avgMissLatency::total 52936.580882                       # average WriteReq miss latency ((Tick/Count))
system.cpu.dcache.WriteReq.mshrHits::cpu.data            3                       # number of WriteReq MSHR hits (Count)
system.cpu.dcache.WriteReq.mshrHits::total            3                       # number of WriteReq MSHR hits (Count)
system.cpu.dcache.WriteReq.mshrMisses::cpu.data          541                       # number of WriteReq MSHR misses (Count)
system.cpu.dcache.WriteReq.mshrMisses::total          541                       # number of WriteReq MSHR misses (Count)
system.cpu.dcache.WriteReq.mshrMissLatency::cpu.data     28119000                       # number of WriteReq MSHR miss ticks (Tick)
system.cpu.dcache.WriteReq.mshrMissLatency::total     28119000                       # number of WriteReq MSHR miss ticks (Tick)
system.cpu.dcache.WriteReq.mshrMissRate::cpu.data     0.000028                       # mshr miss rate for WriteReq accesses (Ratio)
system.cpu.dcache.WriteReq.mshrMissRate::total     0.000028                       # mshr miss rate for WriteReq accesses (Ratio)
system.cpu.dcache.WriteReq.avgMshrMissLatency::cpu.data 51975.970425                       # average WriteReq mshr miss latency ((Tick/Count))
system.cpu.dcache.WriteReq.avgMshrMissLatency::total 51975.970425                       # average WriteReq mshr miss latency ((Tick/Count))
system.cpu.dcache.power_state.pwrStateResidencyTicks::UNDEFINED  88169311000                       # Cumulative time (in ticks) in various power states (Tick)
system.cpu.dcache.tags.tagsInUse           532.485462                       # Average ticks per tags in use ((Tick/Count))
system.cpu.dcache.tags.totalRefs            105924362                       # Total number of references to valid blocks. (Count)
system.cpu.dcache.tags.sampledRefs                882                       # Sample count of references to valid blocks. (Count)
system.cpu.dcache.tags.avgRefs           120095.648526                       # Average number of references to valid blocks. ((Count/Count))
system.cpu.dcache.tags.warmupTick              145000                       # The tick when the warmup percentage was hit. (Tick)
system.cpu.dcache.tags.occupancies::cpu.data   532.485462                       # Average occupied blocks per tick, per requestor ((Count/Tick))
system.cpu.dcache.tags.avgOccs::cpu.data     0.520005                       # Average percentage of cache occupancy ((Ratio/Tick))
system.cpu.dcache.tags.avgOccs::total        0.520005                       # Average percentage of cache occupancy ((Ratio/Tick))
system.cpu.dcache.tags.occupanciesTaskId::1024          546                       # Occupied blocks per task id (Count)
system.cpu.dcache.tags.ageTaskId_1024::0           18                       # Occupied blocks per task id, per block age (Count)
system.cpu.dcache.tags.ageTaskId_1024::4          528                       # Occupied blocks per task id, per block age (Count)
system.cpu.dcache.tags.ratioOccsTaskId::1024     0.533203                       # Ratio of occupied blocks and all blocks, per task id (Ratio)
system.cpu.dcache.tags.tagAccesses          211850770                       # Number of tag accesses (Count)
system.cpu.dcache.tags.dataAccesses         211850770                       # Number of data accesses (Count)
system.cpu.dcache.tags.power_state.pwrStateResidencyTicks::UNDEFINED  88169311000                       # Cumulative time (in ticks) in various power states (Tick)
system.cpu.decode.idleCycles                 24515083                       # Number of cycles decode is idle (Cycle)
system.cpu.decode.blockedCycles              70972644                       # Number of cycles decode is blocked (Cycle)
system.cpu.decode.runCycles                  57813568                       # Number of cycles decode is running (Cycle)
system.cpu.decode.unblockCycles              19492272                       # Number of cycles decode is unblocking (Cycle)
system.cpu.decode.squashCycles                3478418                       # Number of cycles decode is squashing (Cycle)
system.cpu.decode.branchResolved             23556468                       # Number of times decode resolved a branch (Count)
system.cpu.decode.branchMispred                   392                       # Number of times decode detected a branch misprediction (Count)
system.cpu.decode.decodedInsts              558652633                       # Number of instructions handled by decode (Count)
system.cpu.decode.squashedInsts                  1814                       # Number of squashed instructions handled by decode (Count)
system.cpu.dtb_walker_cache.blockedCycles::no_mshrs            0                       # number of cycles access was blocked (Cycle)
system.cpu.dtb_walker_cache.blockedCycles::no_targets            0                       # number of cycles access was blocked (Cycle)
system.cpu.dtb_walker_cache.blockedCauses::no_mshrs            0                       # number of times access was blocked (Count)
system.cpu.dtb_walker_cache.blockedCauses::no_targets            0                       # number of times access was blocked (Count)
system.cpu.dtb_walker_cache.avgBlocked::no_mshrs          nan                       # average number of cycles each access was blocked ((Cycle/Count))
system.cpu.dtb_walker_cache.avgBlocked::no_targets          nan                       # average number of cycles each access was blocked ((Cycle/Count))
system.cpu.dtb_walker_cache.replacements            0                       # number of replacements (Count)
system.cpu.dtb_walker_cache.power_state.pwrStateResidencyTicks::UNDEFINED  88169311000                       # Cumulative time (in ticks) in various power states (Tick)
system.cpu.dtb_walker_cache.tags.tagsInUse            0                       # Average ticks per tags in use ((Tick/Count))
system.cpu.dtb_walker_cache.tags.totalRefs            0                       # Total number of references to valid blocks. (Count)
system.cpu.dtb_walker_cache.tags.sampledRefs            0                       # Sample count of references to valid blocks. (Count)
system.cpu.dtb_walker_cache.tags.avgRefs          nan                       # Average number of references to valid blocks. ((Count/Count))
system.cpu.dtb_walker_cache.tags.warmupTick            0                       # The tick when the warmup percentage was hit. (Tick)
system.cpu.dtb_walker_cache.tags.tagAccesses            0                       # Number of tag accesses (Count)
system.cpu.dtb_walker_cache.tags.dataAccesses            0                       # Number of data accesses (Count)
system.cpu.dtb_walker_cache.tags.power_state.pwrStateResidencyTicks::UNDEFINED  88169311000                       # Cumulative time (in ticks) in various power states (Tick)
system.cpu.fetch.icacheStallCycles           38254558                       # Number of cycles fetch is stalled on an Icache miss (Cycle)
system.cpu.fetch.insts                      423860438                       # Number of instructions fetch has processed (Count)
system.cpu.fetch.branches                    44133953                       # Number of branches that fetch encountered (Count)
system.cpu.fetch.predictedBranches           29298399                       # Number of branches that fetch has predicted taken (Count)
system.cpu.fetch.cycles                     134537635                       # Number of cycles fetch has run and was not squashing or blocked (Cycle)
system.cpu.fetch.squashCycles                 6957594                       # Number of cycles fetch has spent squashing (Cycle)
system.cpu.fetch.miscStallCycles                  140                       # Number of cycles fetch has spent waiting on interrupts, or bad addresses, or out of MSHRs (Cycle)
system.cpu.fetch.pendingTrapStallCycles           827                       # Number of stall cycles due to pending traps (Cycle)
system.cpu.fetch.icacheWaitRetryStallCycles           28                       # Number of stall cycles due to full MSHR (Cycle)
system.cpu.fetch.cacheLines                  36543052                       # Number of cache lines fetched (Count)
system.cpu.fetch.icacheSquashes                679909                       # Number of outstanding Icache misses that were squashed (Count)
system.cpu.fetch.nisnDist::samples          176271985                       # Number of instructions fetched each cycle (Total) (Count)
system.cpu.fetch.nisnDist::mean              3.616438                       # Number of instructions fetched each cycle (Total) (Count)
system.cpu.fetch.nisnDist::stdev             3.484436                       # Number of instructions fetched each cycle (Total) (Count)
system.cpu.fetch.nisnDist::underflows               0      0.00%      0.00% # Number of instructions fetched each cycle (Total) (Count)
system.cpu.fetch.nisnDist::0                 71342960     40.47%     40.47% # Number of instructions fetched each cycle (Total) (Count)
system.cpu.fetch.nisnDist::1                  3583628      2.03%     42.51% # Number of instructions fetched each cycle (Total) (Count)
system.cpu.fetch.nisnDist::2                  6083244      3.45%     45.96% # Number of instructions fetched each cycle (Total) (Count)
system.cpu.fetch.nisnDist::3                 12569305      7.13%     53.09% # Number of instructions fetched each cycle (Total) (Count)
system.cpu.fetch.nisnDist::4                 12114998      6.87%     59.96% # Number of instructions fetched each cycle (Total) (Count)
system.cpu.fetch.nisnDist::5                  2932086      1.66%     61.62% # Number of instructions fetched each cycle (Total) (Count)
system.cpu.fetch.nisnDist::6                  6035527      3.42%     65.05% # Number of instructions fetched each cycle (Total) (Count)
system.cpu.fetch.nisnDist::7                  8196765      4.65%     69.70% # Number of instructions fetched each cycle (Total) (Count)
system.cpu.fetch.nisnDist::8                 53413472     30.30%    100.00% # Number of instructions fetched each cycle (Total) (Count)
system.cpu.fetch.nisnDist::overflows                0      0.00%    100.00% # Number of instructions fetched each cycle (Total) (Count)
system.cpu.fetch.nisnDist::min_value                0                       # Number of instructions fetched each cycle (Total) (Count)
system.cpu.fetch.nisnDist::max_value                8                       # Number of instructions fetched each cycle (Total) (Count)
system.cpu.fetch.nisnDist::total            176271985                       # Number of instructions fetched each cycle (Total) (Count)
system.cpu.fetch.branchRate                  0.250280                       # Number of branch fetches per cycle (Ratio)
system.cpu.fetch.rate                        2.403673                       # Number of inst fetches per cycle ((Count/Cycle))
system.cpu.icache.demandHits::cpu.inst       36539890                       # number of demand (read+write) hits (Count)
system.cpu.icache.demandHits::total          36539890                       # number of demand (read+write) hits (Count)
system.cpu.icache.overallHits::cpu.inst      36539890                       # number of overall hits (Count)
system.cpu.icache.overallHits::total         36539890                       # number of overall hits (Count)
system.cpu.icache.demandMisses::cpu.inst         3162                       # number of demand (read+write) misses (Count)
system.cpu.icache.demandMisses::total            3162                       # number of demand (read+write) misses (Count)
system.cpu.icache.overallMisses::cpu.inst         3162                       # number of overall misses (Count)
system.cpu.icache.overallMisses::total           3162                       # number of overall misses (Count)
system.cpu.icache.demandMissLatency::cpu.inst    102522000                       # number of demand (read+write) miss ticks (Tick)
system.cpu.icache.demandMissLatency::total    102522000                       # number of demand (read+write) miss ticks (Tick)
system.cpu.icache.overallMissLatency::cpu.inst    102522000                       # number of overall miss ticks (Tick)
system.cpu.icache.overallMissLatency::total    102522000                       # number of overall miss ticks (Tick)
system.cpu.icache.demandAccesses::cpu.inst     36543052                       # number of demand (read+write) accesses (Count)
system.cpu.icache.demandAccesses::total      36543052                       # number of demand (read+write) accesses (Count)
system.cpu.icache.overallAccesses::cpu.inst     36543052                       # number of overall (read+write) accesses (Count)
system.cpu.icache.overallAccesses::total     36543052                       # number of overall (read+write) accesses (Count)
system.cpu.icache.demandMissRate::cpu.inst     0.000087                       # miss rate for demand accesses (Ratio)
system.cpu.icache.demandMissRate::total      0.000087                       # miss rate for demand accesses (Ratio)
system.cpu.icache.overallMissRate::cpu.inst     0.000087                       # miss rate for overall accesses (Ratio)
system.cpu.icache.overallMissRate::total     0.000087                       # miss rate for overall accesses (Ratio)
system.cpu.icache.demandAvgMissLatency::cpu.inst 32423.149905                       # average overall miss latency in ticks ((Tick/Count))
system.cpu.icache.demandAvgMissLatency::total 32423.149905                       # average overall miss latency in ticks ((Tick/Count))
system.cpu.icache.overallAvgMissLatency::cpu.inst 32423.149905                       # average overall miss latency ((Tick/Count))
system.cpu.icache.overallAvgMissLatency::total 32423.149905                       # average overall miss latency ((Tick/Count))
system.cpu.icache.blockedCycles::no_mshrs          167                       # number of cycles access was blocked (Cycle)
system.cpu.icache.blockedCycles::no_targets            0                       # number of cycles access was blocked (Cycle)
system.cpu.icache.blockedCauses::no_mshrs            4                       # number of times access was blocked (Count)
system.cpu.icache.blockedCauses::no_targets            0                       # number of times access was blocked (Count)
system.cpu.icache.avgBlocked::no_mshrs      41.750000                       # average number of cycles each access was blocked ((Cycle/Count))
system.cpu.icache.avgBlocked::no_targets          nan                       # average number of cycles each access was blocked ((Cycle/Count))
system.cpu.icache.writebacks::writebacks         2464                       # number of writebacks (Count)
system.cpu.icache.writebacks::total              2464                       # number of writebacks (Count)
system.cpu.icache.demandMshrHits::cpu.inst          442                       # number of demand (read+write) MSHR hits (Count)
system.cpu.icache.demandMshrHits::total           442                       # number of demand (read+write) MSHR hits (Count)
system.cpu.icache.overallMshrHits::cpu.inst          442                       # number of overall MSHR hits (Count)
system.cpu.icache.overallMshrHits::total          442                       # number of overall MSHR hits (Count)
system.cpu.icache.demandMshrMisses::cpu.inst         2720                       # number of demand (read+write) MSHR misses (Count)
system.cpu.icache.demandMshrMisses::total         2720                       # number of demand (read+write) MSHR misses (Count)
system.cpu.icache.overallMshrMisses::cpu.inst         2720                       # number of overall MSHR misses (Count)
system.cpu.icache.overallMshrMisses::total         2720                       # number of overall MSHR misses (Count)
system.cpu.icache.demandMshrMissLatency::cpu.inst     88560000                       # number of demand (read+write) MSHR miss ticks (Tick)
system.cpu.icache.demandMshrMissLatency::total     88560000                       # number of demand (read+write) MSHR miss ticks (Tick)
system.cpu.icache.overallMshrMissLatency::cpu.inst     88560000                       # number of overall MSHR miss ticks (Tick)
system.cpu.icache.overallMshrMissLatency::total     88560000                       # number of overall MSHR miss ticks (Tick)
system.cpu.icache.demandMshrMissRate::cpu.inst     0.000074                       # mshr miss ratio for demand accesses (Ratio)
system.cpu.icache.demandMshrMissRate::total     0.000074                       # mshr miss ratio for demand accesses (Ratio)
system.cpu.icache.overallMshrMissRate::cpu.inst     0.000074                       # mshr miss ratio for overall accesses (Ratio)
system.cpu.icache.overallMshrMissRate::total     0.000074                       # mshr miss ratio for overall accesses (Ratio)
system.cpu.icache.demandAvgMshrMissLatency::cpu.inst 32558.823529                       # average overall mshr miss latency ((Tick/Count))
system.cpu.icache.demandAvgMshrMissLatency::total 32558.823529                       # average overall mshr miss latency ((Tick/Count))
system.cpu.icache.overallAvgMshrMissLatency::cpu.inst 32558.823529                       # average overall mshr miss latency ((Tick/Count))
system.cpu.icache.overallAvgMshrMissLatency::total 32558.823529                       # average overall mshr miss latency ((Tick/Count))
system.cpu.icache.replacements                   2464                       # number of replacements (Count)
system.cpu.icache.ReadReq.hits::cpu.inst     36539890                       # number of ReadReq hits (Count)
system.cpu.icache.ReadReq.hits::total        36539890                       # number of ReadReq hits (Count)
system.cpu.icache.ReadReq.misses::cpu.inst         3162                       # number of ReadReq misses (Count)
system.cpu.icache.ReadReq.misses::total          3162                       # number of ReadReq misses (Count)
system.cpu.icache.ReadReq.missLatency::cpu.inst    102522000                       # number of ReadReq miss ticks (Tick)
system.cpu.icache.ReadReq.missLatency::total    102522000                       # number of ReadReq miss ticks (Tick)
system.cpu.icache.ReadReq.accesses::cpu.inst     36543052                       # number of ReadReq accesses(hits+misses) (Count)
system.cpu.icache.ReadReq.accesses::total     36543052                       # number of ReadReq accesses(hits+misses) (Count)
system.cpu.icache.ReadReq.missRate::cpu.inst     0.000087                       # miss rate for ReadReq accesses (Ratio)
system.cpu.icache.ReadReq.missRate::total     0.000087                       # miss rate for ReadReq accesses (Ratio)
system.cpu.icache.ReadReq.avgMissLatency::cpu.inst 32423.149905                       # average ReadReq miss latency ((Tick/Count))
system.cpu.icache.ReadReq.avgMissLatency::total 32423.149905                       # average ReadReq miss latency ((Tick/Count))
system.cpu.icache.ReadReq.mshrHits::cpu.inst          442                       # number of ReadReq MSHR hits (Count)
system.cpu.icache.ReadReq.mshrHits::total          442                       # number of ReadReq MSHR hits (Count)
system.cpu.icache.ReadReq.mshrMisses::cpu.inst         2720                       # number of ReadReq MSHR misses (Count)
system.cpu.icache.ReadReq.mshrMisses::total         2720                       # number of ReadReq MSHR misses (Count)
system.cpu.icache.ReadReq.mshrMissLatency::cpu.inst     88560000                       # number of ReadReq MSHR miss ticks (Tick)
system.cpu.icache.ReadReq.mshrMissLatency::total     88560000                       # number of ReadReq MSHR miss ticks (Tick)
system.cpu.icache.ReadReq.mshrMissRate::cpu.inst     0.000074                       # mshr miss rate for ReadReq accesses (Ratio)
system.cpu.icache.ReadReq.mshrMissRate::total     0.000074                       # mshr miss rate for ReadReq accesses (Ratio)
system.cpu.icache.ReadReq.avgMshrMissLatency::cpu.inst 32558.823529                       # average ReadReq mshr miss latency ((Tick/Count))
system.cpu.icache.ReadReq.avgMshrMissLatency::total 32558.823529                       # average ReadReq mshr miss latency ((Tick/Count))
system.cpu.icache.power_state.pwrStateResidencyTicks::UNDEFINED  88169311000                       # Cumulative time (in ticks) in various power states (Tick)
system.cpu.icache.tags.tagsInUse           252.900849                       # Average ticks per tags in use ((Tick/Count))
system.cpu.icache.tags.totalRefs             36542609                       # Total number of references to valid blocks. (Count)
system.cpu.icache.tags.sampledRefs               2719                       # Sample count of references to valid blocks. (Count)
system.cpu.icache.tags.avgRefs           13439.723796                       # Average number of references to valid blocks. ((Count/Count))
system.cpu.icache.tags.warmupTick               77000                       # The tick when the warmup percentage was hit. (Tick)
system.cpu.icache.tags.occupancies::cpu.inst   252.900849                       # Average occupied blocks per tick, per requestor ((Count/Tick))
system.cpu.icache.tags.avgOccs::cpu.inst     0.987894                       # Average percentage of cache occupancy ((Ratio/Tick))
system.cpu.icache.tags.avgOccs::total        0.987894                       # Average percentage of cache occupancy ((Ratio/Tick))
system.cpu.icache.tags.occupanciesTaskId::1024          255                       # Occupied blocks per task id (Count)
system.cpu.icache.tags.ageTaskId_1024::0           67                       # Occupied blocks per task id, per block age (Count)
system.cpu.icache.tags.ageTaskId_1024::4          188                       # Occupied blocks per task id, per block age (Count)
system.cpu.icache.tags.ratioOccsTaskId::1024     0.996094                       # Ratio of occupied blocks and all blocks, per task id (Ratio)
system.cpu.icache.tags.tagAccesses           73088823                       # Number of tag accesses (Count)
system.cpu.icache.tags.dataAccesses          73088823                       # Number of data accesses (Count)
system.cpu.icache.tags.power_state.pwrStateResidencyTicks::UNDEFINED  88169311000                       # Cumulative time (in ticks) in various power states (Tick)
system.cpu.iew.idleCycles                           0                       # Number of cycles IEW is idle (Cycle)
system.cpu.iew.squashCycles                   3478418                       # Number of cycles IEW is squashing (Cycle)
system.cpu.iew.blockCycles                   30260268                       # Number of cycles IEW is blocking (Cycle)
system.cpu.iew.unblockCycles                      928                       # Number of cycles IEW is unblocking (Cycle)
system.cpu.iew.dispatchedInsts              518063140                       # Number of instructions dispatched to IQ (Count)
system.cpu.iew.dispSquashedInsts                  461                       # Number of squashed instructions skipped by dispatch (Count)
system.cpu.iew.dispLoadInsts                166654318                       # Number of dispatched load instructions (Count)
system.cpu.iew.dispStoreInsts                38677375                       # Number of dispatched store instructions (Count)
system.cpu.iew.dispNonSpecInsts                     3                       # Number of dispatched non-speculative instructions (Count)
system.cpu.iew.iqFullEvents                       116                       # Number of times the IQ has become full, causing a stall (Count)
system.cpu.iew.lsqFullEvents                      792                       # Number of times the LSQ has become full, causing a stall (Count)
system.cpu.iew.memOrderViolationEvents           9057                       # Number of memory order violations (Count)
system.cpu.iew.predictedTakenIncorrect        2158873                       # Number of branches that were predicted taken incorrectly (Count)
system.cpu.iew.predictedNotTakenIncorrect      1830854                       # Number of branches that were predicted not taken incorrectly (Count)
system.cpu.iew.branchMispredicts              3989727                       # Number of branch mispredicts detected at execute (Count)
system.cpu.iew.instsToCommit                382219481                       # Cumulative count of insts sent to commit (Count)
system.cpu.iew.writebackCount               379416339                       # Cumulative count of insts written-back (Count)
system.cpu.iew.producerInst                 318675305                       # Number of instructions producing a value (Count)
system.cpu.iew.consumerInst                 390386852                       # Number of instructions consuming a value (Count)
system.cpu.iew.wbRate                        2.151635                       # Insts written-back per cycle ((Count/Cycle))
system.cpu.iew.wbFanout                      0.816306                       # Average fanout of values written-back ((Count/Count))
system.cpu.interrupts.clk_domain.clock           8000                       # Clock period in ticks (Tick)
system.cpu.itb_walker_cache.blockedCycles::no_mshrs            0                       # number of cycles access was blocked (Cycle)
system.cpu.itb_walker_cache.blockedCycles::no_targets            0                       # number of cycles access was blocked (Cycle)
system.cpu.itb_walker_cache.blockedCauses::no_mshrs            0                       # number of times access was blocked (Count)
system.cpu.itb_walker_cache.blockedCauses::no_targets            0                       # number of times access was blocked (Count)
system.cpu.itb_walker_cache.avgBlocked::no_mshrs          nan                       # average number of cycles each access was blocked ((Cycle/Count))
system.cpu.itb_walker_cache.avgBlocked::no_targets          nan                       # average number of cycles each access was blocked ((Cycle/Count))
system.cpu.itb_walker_cache.replacements            0                       # number of replacements (Count)
system.cpu.itb_walker_cache.power_state.pwrStateResidencyTicks::UNDEFINED  88169311000                       # Cumulative time (in ticks) in various power states (Tick)
system.cpu.itb_walker_cache.tags.tagsInUse            0                       # Average ticks per tags in use ((Tick/Count))
system.cpu.itb_walker_cache.tags.totalRefs            0                       # Total number of references to valid blocks. (Count)
system.cpu.itb_walker_cache.tags.sampledRefs            0                       # Sample count of references to valid blocks. (Count)
system.cpu.itb_walker_cache.tags.avgRefs          nan                       # Average number of references to valid blocks. ((Count/Count))
system.cpu.itb_walker_cache.tags.warmupTick            0                       # The tick when the warmup percentage was hit. (Tick)
system.cpu.itb_walker_cache.tags.tagAccesses            0                       # Number of tag accesses (Count)
system.cpu.itb_walker_cache.tags.dataAccesses            0                       # Number of data accesses (Count)
system.cpu.itb_walker_cache.tags.power_state.pwrStateResidencyTicks::UNDEFINED  88169311000                       # Cumulative time (in ticks) in various power states (Tick)
system.cpu.lsq0.forwLoads                    35364864                       # Number of loads that had data forwarded from stores (Count)
system.cpu.lsq0.squashedLoads                86927819                       # Number of loads squashed (Count)
system.cpu.lsq0.ignoredResponses                 1211                       # Number of memory responses ignored because the instruction is squashed (Count)
system.cpu.lsq0.memOrderViolation                9057                       # Number of memory ordering violations (Count)
system.cpu.lsq0.squashedStores               19350952                       # Number of stores squashed (Count)
system.cpu.lsq0.rescheduledLoads                    0                       # Number of loads that were rescheduled (Count)
system.cpu.lsq0.blockedByCache                     11                       # Number of times an access to memory failed due to the cache being blocked (Count)
system.cpu.lsq0.loadToUse::samples           79726499                       # Distribution of cycle latency between the first time a load is issued and its completion (Unspecified)
system.cpu.lsq0.loadToUse::mean              2.945625                       # Distribution of cycle latency between the first time a load is issued and its completion (Unspecified)
system.cpu.lsq0.loadToUse::stdev             0.845962                       # Distribution of cycle latency between the first time a load is issued and its completion (Unspecified)
system.cpu.lsq0.loadToUse::0-9               79725720    100.00%    100.00% # Distribution of cycle latency between the first time a load is issued and its completion (Unspecified)
system.cpu.lsq0.loadToUse::10-19                    8      0.00%    100.00% # Distribution of cycle latency between the first time a load is issued and its completion (Unspecified)
system.cpu.lsq0.loadToUse::20-29                    3      0.00%    100.00% # Distribution of cycle latency between the first time a load is issued and its completion (Unspecified)
system.cpu.lsq0.loadToUse::30-39                    3      0.00%    100.00% # Distribution of cycle latency between the first time a load is issued and its completion (Unspecified)
system.cpu.lsq0.loadToUse::40-49                  100      0.00%    100.00% # Distribution of cycle latency between the first time a load is issued and its completion (Unspecified)
system.cpu.lsq0.loadToUse::50-59                    2      0.00%    100.00% # Distribution of cycle latency between the first time a load is issued and its completion (Unspecified)
system.cpu.lsq0.loadToUse::60-69                    3      0.00%    100.00% # Distribution of cycle latency between the first time a load is issued and its completion (Unspecified)
system.cpu.lsq0.loadToUse::70-79                    4      0.00%    100.00% # Distribution of cycle latency between the first time a load is issued and its completion (Unspecified)
system.cpu.lsq0.loadToUse::80-89                    5      0.00%    100.00% # Distribution of cycle latency between the first time a load is issued and its completion (Unspecified)
system.cpu.lsq0.loadToUse::90-99                    6      0.00%    100.00% # Distribution of cycle latency between the first time a load is issued and its completion (Unspecified)
[...]
system.mem_ctrls.dram.bwWrite::total            76943                       # Write bandwidth from this memory ((Byte/Second))
system.mem_ctrls.dram.bwTotal::writebacks        76943                       # Total bandwidth to/from this memory ((Byte/Second))
system.mem_ctrls.dram.bwTotal::cpu.inst       1973657                       # Total bandwidth to/from this memory ((Byte/Second))
system.mem_ctrls.dram.bwTotal::cpu.data        640223                       # Total bandwidth to/from this memory ((Byte/Second))
system.mem_ctrls.dram.bwTotal::total          2690823                       # Total bandwidth to/from this memory ((Byte/Second))
system.mem_ctrls.dram.readBursts                 1475                       # Number of DRAM read bursts (Count)
system.mem_ctrls.dram.writeBursts                 456                       # Number of DRAM write bursts (Count)
system.mem_ctrls.dram.perBankRdBursts::0          226                       # Per bank write bursts (Count)
system.mem_ctrls.dram.perBankRdBursts::1          100                       # Per bank write bursts (Count)
system.mem_ctrls.dram.perBankRdBursts::2           52                       # Per bank write bursts (Count)
system.mem_ctrls.dram.perBankRdBursts::3           36                       # Per bank write bursts (Count)
system.mem_ctrls.dram.perBankRdBursts::4          129                       # Per bank write bursts (Count)
system.mem_ctrls.dram.perBankRdBursts::5            5                       # Per bank write bursts (Count)
system.mem_ctrls.dram.perBankRdBursts::6           60                       # Per bank write bursts (Count)
system.mem_ctrls.dram.perBankRdBursts::7          151                       # Per bank write bursts (Count)
system.mem_ctrls.dram.perBankRdBursts::8          167                       # Per bank write bursts (Count)
system.mem_ctrls.dram.perBankRdBursts::9           31                       # Per bank write bursts (Count)
system.mem_ctrls.dram.perBankRdBursts::10          145                       # Per bank write bursts (Count)
system.mem_ctrls.dram.perBankRdBursts::11           37                       # Per bank write bursts (Count)
system.mem_ctrls.dram.perBankRdBursts::12           25                       # Per bank write bursts (Count)
system.mem_ctrls.dram.perBankRdBursts::13           68                       # Per bank write bursts (Count)
system.mem_ctrls.dram.perBankRdBursts::14           70                       # Per bank write bursts (Count)
system.mem_ctrls.dram.perBankRdBursts::15          173                       # Per bank write bursts (Count)
system.mem_ctrls.dram.perBankWrBursts::0           61                       # Per bank write bursts (Count)
system.mem_ctrls.dram.perBankWrBursts::1           84                       # Per bank write bursts (Count)
system.mem_ctrls.dram.perBankWrBursts::2           37                       # Per bank write bursts (Count)
system.mem_ctrls.dram.perBankWrBursts::3           22                       # Per bank write bursts (Count)
system.mem_ctrls.dram.perBankWrBursts::4           29                       # Per bank write bursts (Count)
system.mem_ctrls.dram.perBankWrBursts::5            0                       # Per bank write bursts (Count)
system.mem_ctrls.dram.perBankWrBursts::6            0                       # Per bank write bursts (Count)
system.mem_ctrls.dram.perBankWrBursts::7           20                       # Per bank write bursts (Count)
system.mem_ctrls.dram.perBankWrBursts::8           17                       # Per bank write bursts (Count)
system.mem_ctrls.dram.perBankWrBursts::9           18                       # Per bank write bursts (Count)
system.mem_ctrls.dram.perBankWrBursts::10           83                       # Per bank write bursts (Count)
system.mem_ctrls.dram.perBankWrBursts::11           22                       # Per bank write bursts (Count)
system.mem_ctrls.dram.perBankWrBursts::12            3                       # Per bank write bursts (Count)
system.mem_ctrls.dram.perBankWrBursts::13           15                       # Per bank write bursts (Count)
system.mem_ctrls.dram.perBankWrBursts::14           27                       # Per bank write bursts (Count)
system.mem_ctrls.dram.perBankWrBursts::15           18                       # Per bank write bursts (Count)
system.mem_ctrls.dram.totQLat                19686250                       # Total ticks spent queuing (Tick)
system.mem_ctrls.dram.totBusLat               7375000                       # Total ticks spent in databus transfers (Tick)
system.mem_ctrls.dram.totMemAccLat           47342500                       # Total ticks spent from burst creation until serviced by the DRAM (Tick)
system.mem_ctrls.dram.avgQLat                13346.61                       # Average queueing delay per DRAM burst ((Tick/Count))
system.mem_ctrls.dram.avgBusLat               5000.00                       # Average bus latency per DRAM burst ((Tick/Count))
system.mem_ctrls.dram.avgMemAccLat           32096.61                       # Average memory access latency per DRAM burst ((Tick/Count))
system.mem_ctrls.dram.readRowHits                1001                       # Number of row buffer hits during reads (Count)
system.mem_ctrls.dram.writeRowHits                341                       # Number of row buffer hits during writes (Count)
system.mem_ctrls.dram.readRowHitRate            67.86                       # Row buffer hit rate for reads (Ratio)
system.mem_ctrls.dram.writeRowHitRate           74.78                       # Row buffer hit rate for writes (Ratio)
system.mem_ctrls.dram.bytesPerActivate::samples          578                       # Bytes accessed per row activation (Byte)
system.mem_ctrls.dram.bytesPerActivate::mean   210.491349                       # Bytes accessed per row activation (Byte)
system.mem_ctrls.dram.bytesPerActivate::gmean   126.774061                       # Bytes accessed per row activation (Byte)
system.mem_ctrls.dram.bytesPerActivate::stdev   262.337488                       # Bytes accessed per row activation (Byte)
system.mem_ctrls.dram.bytesPerActivate::0-127          321     55.54%     55.54% # Bytes accessed per row activation (Byte)
system.mem_ctrls.dram.bytesPerActivate::128-255          111     19.20%     74.74% # Bytes accessed per row activation (Byte)
system.mem_ctrls.dram.bytesPerActivate::256-383           52      9.00%     83.74% # Bytes accessed per row activation (Byte)
system.mem_ctrls.dram.bytesPerActivate::384-511           24      4.15%     87.89% # Bytes accessed per row activation (Byte)
system.mem_ctrls.dram.bytesPerActivate::512-639           11      1.90%     89.79% # Bytes accessed per row activation (Byte)
system.mem_ctrls.dram.bytesPerActivate::640-767           10      1.73%     91.52% # Bytes accessed per row activation (Byte)
system.mem_ctrls.dram.bytesPerActivate::768-895           10      1.73%     93.25% # Bytes accessed per row activation (Byte)
system.mem_ctrls.dram.bytesPerActivate::896-1023           12      2.08%     95.33% # Bytes accessed per row activation (Byte)
system.mem_ctrls.dram.bytesPerActivate::1024-1151           27      4.67%    100.00% # Bytes accessed per row activation (Byte)
system.mem_ctrls.dram.bytesPerActivate::total          578                       # Bytes accessed per row activation (Byte)
system.mem_ctrls.dram.bytesRead                 94400                       # Total bytes read (Byte)
system.mem_ctrls.dram.bytesWritten              29184                       # Total bytes written (Byte)
system.mem_ctrls.dram.avgRdBW                1.070667                       # Average DRAM read bandwidth in MiBytes/s ((Byte/Second))
system.mem_ctrls.dram.avgWrBW                0.331000                       # Average DRAM write bandwidth in MiBytes/s ((Byte/Second))
system.mem_ctrls.dram.peakBW                 12800.00                       # Theoretical peak bandwidth in MiByte/s ((Byte/Second))
system.mem_ctrls.dram.busUtil                    0.01                       # Data bus utilization in percentage (Ratio)
system.mem_ctrls.dram.busUtilRead                0.01                       # Data bus utilization in percentage for reads (Ratio)
system.mem_ctrls.dram.busUtilWrite               0.00                       # Data bus utilization in percentage for writes (Ratio)
system.mem_ctrls.dram.pageHitRate               69.50                       # Row buffer hit rate, read and write combined (Ratio)
system.mem_ctrls.dram.power_state.pwrStateResidencyTicks::UNDEFINED  88169311000                       # Cumulative time (in ticks) in various power states (Tick)
system.mem_ctrls.dram.rank0.actEnergy         2570400                       # Energy for activate commands per rank (pJ) (Joule)
system.mem_ctrls.dram.rank0.preEnergy         1351020                       # Energy for precharge commands per rank (pJ) (Joule)
system.mem_ctrls.dram.rank0.readEnergy        5419260                       # Energy for read commands per rank (pJ) (Joule)
system.mem_ctrls.dram.rank0.writeEnergy       1320660                       # Energy for write commands per rank (pJ) (Joule)
system.mem_ctrls.dram.rank0.refreshEnergy 6959568720.000001                       # Energy for refresh commands per rank (pJ) (Joule)
system.mem_ctrls.dram.rank0.actBackEnergy   1518672090                       # Energy for active background per rank (pJ) (Joule)
system.mem_ctrls.dram.rank0.preBackEnergy  32578133760                       # Energy for precharge background per rank (pJ) (Joule)
system.mem_ctrls.dram.rank0.actPowerDownEnergy            0                       # Energy for active power-down per rank (pJ) (Joule)
system.mem_ctrls.dram.rank0.prePowerDownEnergy            0                       # Energy for precharge power-down per rank (pJ) (Joule)
system.mem_ctrls.dram.rank0.selfRefreshEnergy            0                       # Energy for self refresh per rank (pJ) (Joule)
system.mem_ctrls.dram.rank0.totalEnergy   41067035910                       # Total energy per rank (pJ) (Joule)
system.mem_ctrls.dram.rank0.averagePower   465.774717                       # Core power per rank (mW) (Watt)
system.mem_ctrls.dram.rank0.totalIdleTime            0                       # Total Idle time Per DRAM Rank (Tick)
system.mem_ctrls.dram.rank0.pwrStateTime::IDLE  84681347000                       # Time in different power states (Tick)
system.mem_ctrls.dram.rank0.pwrStateTime::REF   2943980000                       # Time in different power states (Tick)
system.mem_ctrls.dram.rank0.pwrStateTime::SREF            0                       # Time in different power states (Tick)
system.mem_ctrls.dram.rank0.pwrStateTime::PRE_PDN            0                       # Time in different power states (Tick)
system.mem_ctrls.dram.rank0.pwrStateTime::ACT    543984000                       # Time in different power states (Tick)
system.mem_ctrls.dram.rank0.pwrStateTime::ACT_PDN            0                       # Time in different power states (Tick)
system.mem_ctrls.dram.rank1.actEnergy         1635060                       # Energy for activate commands per rank (pJ) (Joule)
system.mem_ctrls.dram.rank1.preEnergy          842490                       # Energy for precharge commands per rank (pJ) (Joule)
system.mem_ctrls.dram.rank1.readEnergy        5112240                       # Energy for read commands per rank (pJ) (Joule)
system.mem_ctrls.dram.rank1.writeEnergy       1059660                       # Energy for write commands per rank (pJ) (Joule)
system.mem_ctrls.dram.rank1.refreshEnergy 6959568720.000001                       # Energy for refresh commands per rank (pJ) (Joule)
system.mem_ctrls.dram.rank1.actBackEnergy   1329963330                       # Energy for active background per rank (pJ) (Joule)
system.mem_ctrls.dram.rank1.preBackEnergy  32737046400                       # Energy for precharge background per rank (pJ) (Joule)
system.mem_ctrls.dram.rank1.actPowerDownEnergy            0                       # Energy for active power-down per rank (pJ) (Joule)
system.mem_ctrls.dram.rank1.prePowerDownEnergy            0                       # Energy for precharge power-down per rank (pJ) (Joule)
system.mem_ctrls.dram.rank1.selfRefreshEnergy            0                       # Energy for self refresh per rank (pJ) (Joule)
system.mem_ctrls.dram.rank1.totalEnergy   41035227900                       # Total energy per rank (pJ) (Joule)
system.mem_ctrls.dram.rank1.averagePower   465.413957                       # Core power per rank (mW) (Watt)
system.mem_ctrls.dram.rank1.totalIdleTime            0                       # Total Idle time Per DRAM Rank (Tick)
system.mem_ctrls.dram.rank1.pwrStateTime::IDLE  85096622250                       # Time in different power states (Tick)
system.mem_ctrls.dram.rank1.pwrStateTime::REF   2943980000                       # Time in different power states (Tick)
system.mem_ctrls.dram.rank1.pwrStateTime::SREF            0                       # Time in different power states (Tick)
system.mem_ctrls.dram.rank1.pwrStateTime::PRE_PDN            0                       # Time in different power states (Tick)
system.mem_ctrls.dram.rank1.pwrStateTime::ACT    128708750                       # Time in different power states (Tick)
system.mem_ctrls.dram.rank1.pwrStateTime::ACT_PDN            0                       # Time in different power states (Tick)
system.mem_ctrls.power_state.pwrStateResidencyTicks::UNDEFINED  88169311000                       # Cumulative time (in ticks) in various power states (Tick)
system.membus.transDist::ReadResp                3060                       # Transaction distribution (Count)
system.membus.transDist::WritebackDirty           106                       # Transaction distribution (Count)
system.membus.transDist::WritebackClean          2464                       # Transaction distribution (Count)
system.membus.transDist::CleanEvict               230                       # Transaction distribution (Count)
system.membus.transDist::ReadExReq                541                       # Transaction distribution (Count)
system.membus.transDist::ReadExResp               541                       # Transaction distribution (Count)
system.membus.transDist::ReadCleanReq            2720                       # Transaction distribution (Count)
system.membus.transDist::ReadSharedReq            341                       # Transaction distribution (Count)
system.membus.pktCount_system.cpu.icache.mem_side_port::system.mem_ctrls.port         7903                       # Packet count per connected requestor and responder (Count)
system.membus.pktCount_system.cpu.icache.mem_side_port::total         7903                       # Packet count per connected requestor and responder (Count)
system.membus.pktCount_system.cpu.dcache.mem_side_port::system.mem_ctrls.port         2100                       # Packet count per connected requestor and responder (Count)
system.membus.pktCount_system.cpu.dcache.mem_side_port::total         2100                       # Packet count per connected requestor and responder (Count)
system.membus.pktCount::total                   10003                       # Packet count per connected requestor and responder (Count)
system.membus.pktSize_system.cpu.icache.mem_side_port::system.mem_ctrls.port       331712                       # Cumulative packet size per connected requestor and responder (Byte)
system.membus.pktSize_system.cpu.icache.mem_side_port::total       331712                       # Cumulative packet size per connected requestor and responder (Byte)
system.membus.pktSize_system.cpu.dcache.mem_side_port::system.mem_ctrls.port        63232                       # Cumulative packet size per connected requestor and responder (Byte)
system.membus.pktSize_system.cpu.dcache.mem_side_port::total        63232                       # Cumulative packet size per connected requestor and responder (Byte)
system.membus.pktSize::total                   394944                       # Cumulative packet size per connected requestor and responder (Byte)
system.membus.snoops                                0                       # Total snoops (Count)
system.membus.snoopTraffic                          0                       # Total snoop traffic (Byte)
system.membus.snoopFanout::samples               3602                       # Request fanout histogram (Count)
system.membus.snoopFanout::mean                     0                       # Request fanout histogram (Count)
system.membus.snoopFanout::stdev                    0                       # Request fanout histogram (Count)
system.membus.snoopFanout::underflows               0      0.00%      0.00% # Request fanout histogram (Count)
system.membus.snoopFanout::0                     3602    100.00%    100.00% # Request fanout histogram (Count)
system.membus.snoopFanout::1                        0      0.00%    100.00% # Request fanout histogram (Count)
system.membus.snoopFanout::2                        0      0.00%    100.00% # Request fanout histogram (Count)
system.membus.snoopFanout::3                        0      0.00%    100.00% # Request fanout histogram (Count)
system.membus.snoopFanout::4                        0      0.00%    100.00% # Request fanout histogram (Count)
system.membus.snoopFanout::overflows                0      0.00%    100.00% # Request fanout histogram (Count)
system.membus.snoopFanout::min_value                0                       # Request fanout histogram (Count)
system.membus.snoopFanout::max_value                0                       # Request fanout histogram (Count)
system.membus.snoopFanout::total                 3602                       # Request fanout histogram (Count)
system.membus.power_state.pwrStateResidencyTicks::UNDEFINED  88169311000                       # Cumulative time (in ticks) in various power states (Tick)
system.membus.reqLayer2.occupancy            17307000                       # Layer occupancy (ticks) (Tick)
system.membus.reqLayer2.utilization               0.0                       # Layer utilization (Ratio)
system.membus.respLayer1.occupancy           13813500                       # Layer occupancy (ticks) (Tick)
system.membus.respLayer1.utilization              0.0                       # Layer utilization (Ratio)
system.membus.respLayer2.occupancy            4691500                       # Layer occupancy (ticks) (Tick)
system.membus.respLayer2.utilization              0.0                       # Layer utilization (Ratio)
system.membus.snoop_filter.totRequests           6402                       # Total number of requests made to the snoop filter. (Count)
system.membus.snoop_filter.hitSingleRequests         2800                       # Number of requests hitting in the snoop filter with a single holder of the requested data. (Count)
system.membus.snoop_filter.hitMultiRequests            0                       # Number of requests hitting in the snoop filter with multiple (>1) holders of the requested data. (Count)
system.membus.snoop_filter.totSnoops                0                       # Total number of snoops made to the snoop filter. (Count)
system.membus.snoop_filter.hitSingleSnoops            0                       # Number of snoops hitting in the snoop filter with a single holder of the requested data. (Count)
system.membus.snoop_filter.hitMultiSnoops            0                       # Number of snoops hitting in the snoop filter with multiple (>1) holders of the requested data. (Count)
system.voltage_domain.voltage                       1                       # Voltage in Volts (Volt)
system.workload.inst.arm                            0                       # number of arm instructions executed (Count)
system.workload.inst.quiesce                        0                       # number of quiesce instructions executed (Count)

---------- End Simulation Statistics   ----------
